MODEL 1
REMARK VINA RESULT:      -5.9      0.000      0.000
REMARK  3 active torsions:
REMARK  status: ('A' for Active; 'I' for Inactive)
REMARK    1  A    between atoms: C1_1  and  C7_11 
REMARK    2  A    between atoms: N1_2  and  C8_12 
REMARK    3  A    between atoms: C7_11  and  C8_12 
ROOT
HETATM    1  C1  ALE A1402      -6.255 -13.532 -52.573  1.00 82.90     0.012 A 
HETATM    2  O1  ALE A1402      -9.088 -14.974 -50.751  1.00 91.95    -0.188 OA
HETATM    3  C2  ALE A1402      -7.014 -14.003 -51.505  1.00 92.28     0.028 A 
HETATM    4  O2  ALE A1402     -10.058 -15.034 -53.180  1.00 89.58    -0.188 OA
HETATM    5  C3  ALE A1402      -8.289 -14.499 -51.744  1.00 95.92     0.156 A 
HETATM    6  C4  ALE A1402      -8.803 -14.531 -53.032  1.00 92.28     0.156 A 
HETATM    7  C5  ALE A1402      -8.052 -14.064 -54.103  1.00 86.87     0.029 A 
HETATM    8  C6  ALE A1402      -6.774 -13.565 -53.866  1.00 82.92     0.001 A 
ENDROOT
BRANCH   1   9
HETATM    9  C7  ALE A1402      -4.977 -13.031 -52.342  1.00 82.45     0.211 C 
HETATM   10  O3  ALE A1402      -5.053 -11.735 -51.743  1.00 73.05    -0.216 OA
BRANCH   9  11
HETATM   11  C8  ALE A1402      -4.207 -13.980 -51.422  1.00 96.53     0.327 C 
BRANCH  11  12
HETATM   12  N1  ALE A1402      -3.830 -13.307 -50.171  1.00102.87     0.344 N 
HETATM   13  C9  ALE A1402      -4.293 -14.102 -49.026  1.00107.66     0.328 C 
ENDBRANCH  11  12
ENDBRANCH   9  11
ENDBRANCH   1   9
TORSDOF 3
ENDMDL
MODEL 2
REMARK VINA RESULT:      -5.8      7.049      9.209
REMARK  3 active torsions:
REMARK  status: ('A' for Active; 'I' for Inactive)
REMARK    1  A    between atoms: C1_1  and  C7_11 
REMARK    2  A    between atoms: N1_2  and  C8_12 
REMARK    3  A    between atoms: C7_11  and  C8_12 
ROOT
HETATM    1  C1  ALE A1402      -0.358 -12.732 -47.868  1.00 82.90     0.012 A 
HETATM    2  O1  ALE A1402       1.922 -11.173 -45.460  1.00 91.95    -0.188 OA
HETATM    3  C2  ALE A1402       0.725 -12.006 -47.381  1.00 92.28     0.028 A 
HETATM    4  O2  ALE A1402       0.221 -12.268 -43.801  1.00 89.58    -0.188 OA
HETATM    5  C3  ALE A1402       0.889 -11.868 -46.009  1.00 95.92     0.156 A 
HETATM    6  C4  ALE A1402      -0.013 -12.449 -45.129  1.00 92.28     0.156 A 
HETATM    7  C5  ALE A1402      -1.096 -13.176 -45.607  1.00 86.87     0.029 A 
HETATM    8  C6  ALE A1402      -1.263 -13.314 -46.982  1.00 82.92     0.001 A 
ENDROOT
BRANCH   1   9
HETATM    9  C7  ALE A1402      -0.530 -12.873 -49.242  1.00 82.45     0.211 C 
HETATM   10  O3  ALE A1402      -1.756 -12.261 -49.654  1.00 73.05    -0.216 OA
BRANCH   9  11
HETATM   11  C8  ALE A1402       0.642 -12.226 -49.981  1.00 96.53     0.327 C 
BRANCH  11  12
HETATM   12  N1  ALE A1402       1.448 -13.240 -50.677  1.00102.87     0.344 N 
HETATM   13  C9  ALE A1402       0.580 -14.043 -51.550  1.00107.66     0.328 C 
ENDBRANCH  11  12
ENDBRANCH   9  11
ENDBRANCH   1   9
TORSDOF 3
ENDMDL
MODEL 3
REMARK VINA RESULT:      -5.7      7.226      9.310
REMARK  3 active torsions:
REMARK  status: ('A' for Active; 'I' for Inactive)
REMARK    1  A    between atoms: C1_1  and  C7_11 
REMARK    2  A    between atoms: N1_2  and  C8_12 
REMARK    3  A    between atoms: C7_11  and  C8_12 
ROOT
HETATM    1  C1  ALE A1402       0.910 -12.351 -48.136  1.00 82.90     0.012 A 
HETATM    2  O1  ALE A1402      -1.662 -13.182 -45.663  1.00 91.95    -0.188 OA
HETATM    3  C2  ALE A1402      -0.292 -12.821 -47.613  1.00 92.28     0.028 A 
HETATM    4  O2  ALE A1402       0.149 -12.156 -44.078  1.00 89.58    -0.188 OA
HETATM    5  C3  ALE A1402      -0.514 -12.742 -46.245  1.00 95.92     0.156 A 
HETATM    6  C4  ALE A1402       0.446 -12.198 -45.405  1.00 92.28     0.156 A 
HETATM    7  C5  ALE A1402       1.647 -11.725 -45.919  1.00 86.87     0.029 A 
HETATM    8  C6  ALE A1402       1.873 -11.805 -47.290  1.00 82.92     0.001 A 
ENDROOT
BRANCH   1   9
HETATM    9  C7  ALE A1402       1.141 -12.428 -49.507  1.00 82.45     0.211 C 
HETATM   10  O3  ALE A1402       2.238 -11.586 -49.873  1.00 73.05    -0.216 OA
BRANCH   9  11
HETATM   11  C8  ALE A1402       1.447 -13.873 -49.902  1.00 96.53     0.327 C 
BRANCH  11  12
HETATM   12  N1  ALE A1402       0.889 -14.185 -51.226  1.00102.87     0.344 N 
HETATM   13  C9  ALE A1402      -0.374 -13.458 -51.411  1.00107.66     0.328 C 
ENDBRANCH  11  12
ENDBRANCH   9  11
ENDBRANCH   1   9
TORSDOF 3
ENDMDL
MODEL 4
REMARK VINA RESULT:      -5.6      1.468      1.589
REMARK  3 active torsions:
REMARK  status: ('A' for Active; 'I' for Inactive)
REMARK    1  A    between atoms: C1_1  and  C7_11 
REMARK    2  A    between atoms: N1_2  and  C8_12 
REMARK    3  A    between atoms: C7_11  and  C8_12 
ROOT
HETATM    1  C1  ALE A1402      -6.368 -13.287 -52.800  1.00 82.90     0.012 A 
HETATM    2  O1  ALE A1402      -8.899 -14.889 -50.690  1.00 91.95    -0.188 OA
HETATM    3  C2  ALE A1402      -7.003 -13.751 -51.651  1.00 92.28     0.028 A 
HETATM    4  O2  ALE A1402      -9.989 -15.265 -53.039  1.00 89.58    -0.188 OA
HETATM    5  C3  ALE A1402      -8.220 -14.410 -51.767  1.00 95.92     0.156 A 
HETATM    6  C4  ALE A1402      -8.798 -14.609 -53.013  1.00 92.28     0.156 A 
HETATM    7  C5  ALE A1402      -8.169 -14.151 -54.164  1.00 86.87     0.029 A 
HETATM    8  C6  ALE A1402      -6.950 -13.489 -54.049  1.00 82.92     0.001 A 
ENDROOT
BRANCH   1   9
HETATM    9  C7  ALE A1402      -5.148 -12.624 -52.692  1.00 82.45     0.211 C 
HETATM   10  O3  ALE A1402      -4.720 -12.594 -51.327  1.00 73.05    -0.216 OA
BRANCH   9  11
HETATM   11  C8  ALE A1402      -4.096 -13.331 -53.547  1.00 96.53     0.327 C 
BRANCH  11  12
HETATM   12  N1  ALE A1402      -3.186 -14.126 -52.710  1.00102.87     0.344 N 
HETATM   13  C9  ALE A1402      -3.394 -15.555 -52.979  1.00107.66     0.328 C 
ENDBRANCH  11  12
ENDBRANCH   9  11
ENDBRANCH   1   9
TORSDOF 3
ENDMDL
MODEL 5
REMARK VINA RESULT:      -5.6      2.248      3.077
REMARK  3 active torsions:
REMARK  status: ('A' for Active; 'I' for Inactive)
REMARK    1  A    between atoms: C1_1  and  C7_11 
REMARK    2  A    between atoms: N1_2  and  C8_12 
REMARK    3  A    between atoms: C7_11  and  C8_12 
ROOT
HETATM    1  C1  ALE A1402      -6.996 -13.711 -53.552  1.00 82.90     0.012 A 
HETATM    2  O1  ALE A1402     -10.360 -15.152 -53.739  1.00 91.95    -0.188 OA
HETATM    3  C2  ALE A1402      -8.209 -14.124 -54.098  1.00 92.28     0.028 A 
HETATM    4  O2  ALE A1402      -9.880 -15.498 -51.190  1.00 89.58    -0.188 OA
HETATM    5  C3  ALE A1402      -9.155 -14.722 -53.276  1.00 95.92     0.156 A 
HETATM    6  C4  ALE A1402      -8.901 -14.906 -51.925  1.00 92.28     0.156 A 
HETATM    7  C5  ALE A1402      -7.694 -14.495 -51.372  1.00 86.87     0.029 A 
HETATM    8  C6  ALE A1402      -6.744 -13.896 -52.194  1.00 82.92     0.001 A 
ENDROOT
BRANCH   1   9
HETATM    9  C7  ALE A1402      -6.042 -13.111 -54.369  1.00 82.45     0.211 C 
HETATM   10  O3  ALE A1402      -5.724 -11.804 -53.883  1.00 73.05    -0.216 OA
BRANCH   9  11
HETATM   11  C8  ALE A1402      -4.776 -13.969 -54.405  1.00 96.53     0.327 C 
BRANCH  11  12
HETATM   12  N1  ALE A1402      -4.991 -15.188 -55.198  1.00102.87     0.344 N 
HETATM   13  C9  ALE A1402      -4.757 -16.370 -54.356  1.00107.66     0.328 C 
ENDBRANCH  11  12
ENDBRANCH   9  11
ENDBRANCH   1   9
TORSDOF 3
ENDMDL
MODEL 6
REMARK VINA RESULT:      -5.4      2.498      2.979
REMARK  3 active torsions:
REMARK  status: ('A' for Active; 'I' for Inactive)
REMARK    1  A    between atoms: C1_1  and  C7_11 
REMARK    2  A    between atoms: N1_2  and  C8_12 
REMARK    3  A    between atoms: C7_11  and  C8_12 
ROOT
HETATM    1  C1  ALE A1402      -6.588 -14.992 -53.628  1.00 82.90     0.012 A 
HETATM    2  O1  ALE A1402      -8.824 -13.659 -51.049  1.00 91.95    -0.188 OA
HETATM    3  C2  ALE A1402      -7.008 -14.495 -52.397  1.00 92.28     0.028 A 
HETATM    4  O2  ALE A1402     -10.539 -13.947 -53.005  1.00 89.58    -0.188 OA
HETATM    5  C3  ALE A1402      -8.342 -14.152 -52.222  1.00 95.92     0.156 A 
HETATM    6  C4  ALE A1402      -9.251 -14.304 -53.259  1.00 92.28     0.156 A 
HETATM    7  C5  ALE A1402      -8.840 -14.801 -54.490  1.00 86.87     0.029 A 
HETATM    8  C6  ALE A1402      -7.503 -15.145 -54.667  1.00 82.92     0.001 A 
ENDROOT
BRANCH   1   9
HETATM    9  C7  ALE A1402      -5.252 -15.337 -53.812  1.00 82.45     0.211 C 
HETATM   10  O3  ALE A1402      -5.129 -16.746 -54.026  1.00 73.05    -0.216 OA
BRANCH   9  11
HETATM   11  C8  ALE A1402      -4.681 -14.581 -55.012  1.00 96.53     0.327 C 
BRANCH  11  12
HETATM   12  N1  ALE A1402      -3.532 -13.755 -54.615  1.00102.87     0.344 N 
HETATM   13  C9  ALE A1402      -3.992 -12.400 -54.284  1.00107.66     0.328 C 
ENDBRANCH  11  12
ENDBRANCH   9  11
ENDBRANCH   1   9
TORSDOF 3
ENDMDL
MODEL 7
REMARK VINA RESULT:      -5.4      0.922      1.896
REMARK  3 active torsions:
REMARK  status: ('A' for Active; 'I' for Inactive)
REMARK    1  A    between atoms: C1_1  and  C7_11 
REMARK    2  A    between atoms: N1_2  and  C8_12 
REMARK    3  A    between atoms: C7_11  and  C8_12 
ROOT
HETATM    1  C1  ALE A1402      -6.519 -13.326 -52.705  1.00 82.90     0.012 A 
HETATM    2  O1  ALE A1402      -8.928 -14.898 -54.976  1.00 91.95    -0.188 OA
HETATM    3  C2  ALE A1402      -7.126 -13.712 -53.897  1.00 92.28     0.028 A 
HETATM    4  O2  ALE A1402      -9.960 -15.617 -52.682  1.00 89.58    -0.188 OA
HETATM    5  C3  ALE A1402      -8.281 -14.483 -53.853  1.00 95.92     0.156 A 
HETATM    6  C4  ALE A1402      -8.828 -14.864 -52.637  1.00 92.28     0.156 A 
HETATM    7  C5  ALE A1402      -8.229 -14.481 -51.443  1.00 86.87     0.029 A 
HETATM    8  C6  ALE A1402      -7.071 -13.710 -51.485  1.00 82.92     0.001 A 
ENDROOT
BRANCH   1   9
HETATM    9  C7  ALE A1402      -5.361 -12.555 -52.741  1.00 82.45     0.211 C 
HETATM   10  O3  ALE A1402      -5.574 -11.310 -52.071  1.00 73.05    -0.216 OA
BRANCH   9  11
HETATM   11  C8  ALE A1402      -4.213 -13.311 -52.071  1.00 96.53     0.327 C 
BRANCH  11  12
HETATM   12  N1  ALE A1402      -3.673 -12.548 -50.936  1.00102.87     0.344 N 
HETATM   13  C9  ALE A1402      -3.668 -13.393 -49.734  1.00107.66     0.328 C 
ENDBRANCH  11  12
ENDBRANCH   9  11
ENDBRANCH   1   9
TORSDOF 3
ENDMDL
MODEL 8
REMARK VINA RESULT:      -5.2      4.772      8.013
REMARK  3 active torsions:
REMARK  status: ('A' for Active; 'I' for Inactive)
REMARK    1  A    between atoms: C1_1  and  C7_11 
REMARK    2  A    between atoms: N1_2  and  C8_12 
REMARK    3  A    between atoms: C7_11  and  C8_12 
ROOT
HETATM    1  C1  ALE A1402      -1.449 -12.212 -48.781  1.00 82.90     0.012 A 
HETATM    2  O1  ALE A1402      -0.431 -11.865 -45.278  1.00 91.95    -0.188 OA
HETATM    3  C2  ALE A1402      -1.554 -12.014 -47.407  1.00 92.28     0.028 A 
HETATM    4  O2  ALE A1402       1.908 -12.292 -46.370  1.00 89.58    -0.188 OA
HETATM    5  C3  ALE A1402      -0.406 -12.049 -46.626  1.00 95.92     0.156 A 
HETATM    6  C4  ALE A1402       0.834 -12.275 -47.205  1.00 92.28     0.156 A 
HETATM    7  C5  ALE A1402       0.947 -12.471 -48.576  1.00 86.87     0.029 A 
HETATM    8  C6  ALE A1402      -0.202 -12.438 -49.360  1.00 82.92     0.001 A 
ENDROOT
BRANCH   1   9
HETATM    9  C7  ALE A1402      -2.595 -12.179 -49.571  1.00 82.45     0.211 C 
HETATM   10  O3  ALE A1402      -2.796 -10.865 -50.099  1.00 73.05    -0.216 OA
BRANCH   9  11
HETATM   11  C8  ALE A1402      -2.463 -13.181 -50.719  1.00 96.53     0.327 C 
BRANCH  11  12
HETATM   12  N1  ALE A1402      -3.744 -13.853 -50.980  1.00102.87     0.344 N 
HETATM   13  C9  ALE A1402      -4.485 -14.004 -49.720  1.00107.66     0.328 C 
ENDBRANCH  11  12
ENDBRANCH   9  11
ENDBRANCH   1   9
TORSDOF 3
ENDMDL
MODEL 9
REMARK VINA RESULT:      -5.0      4.459      6.577
REMARK  3 active torsions:
REMARK  status: ('A' for Active; 'I' for Inactive)
REMARK    1  A    between atoms: C1_1  and  C7_11 
REMARK    2  A    between atoms: N1_2  and  C8_12 
REMARK    3  A    between atoms: C7_11  and  C8_12 
ROOT
HETATM    1  C1  ALE A1402      -1.649 -13.386 -51.621  1.00 82.90     0.012 A 
HETATM    2  O1  ALE A1402       1.896 -14.300 -51.489  1.00 91.95    -0.188 OA
HETATM    3  C2  ALE A1402      -0.306 -13.347 -51.256  1.00 92.28     0.028 A 
HETATM    4  O2  ALE A1402       1.046 -16.102 -53.185  1.00 89.58    -0.188 OA
HETATM    5  C3  ALE A1402       0.572 -14.276 -51.799  1.00 95.92     0.156 A 
HETATM    6  C4  ALE A1402       0.121 -15.231 -52.699  1.00 92.28     0.156 A 
HETATM    7  C5  ALE A1402      -1.218 -15.275 -53.069  1.00 86.87     0.029 A 
HETATM    8  C6  ALE A1402      -2.100 -14.346 -52.525  1.00 82.92     0.001 A 
ENDROOT
BRANCH   1   9
HETATM    9  C7  ALE A1402      -2.536 -12.459 -51.080  1.00 82.45     0.211 C 
HETATM   10  O3  ALE A1402      -3.637 -12.249 -51.969  1.00 73.05    -0.216 OA
BRANCH   9  11
HETATM   11  C8  ALE A1402      -3.052 -12.961 -49.731  1.00 96.53     0.327 C 
BRANCH  11  12
HETATM   12  N1  ALE A1402      -4.307 -13.708 -49.893  1.00102.87     0.344 N 
HETATM   13  C9  ALE A1402      -4.637 -14.394 -48.636  1.00107.66     0.328 C 
ENDBRANCH  11  12
ENDBRANCH   9  11
ENDBRANCH   1   9
TORSDOF 3
ENDMDL
