MODEL 1
REMARK VINA RESULT:      -5.8      0.000      0.000
REMARK  3 active torsions:
REMARK  status: ('A' for Active; 'I' for Inactive)
REMARK    1  A    between atoms: C1_1  and  C7_11 
REMARK    2  A    between atoms: N1_2  and  C8_12 
REMARK    3  A    between atoms: C7_11  and  C8_12 
ROOT
HETATM    1  C1  ALE A1402      -7.613 -13.004 -52.115  1.00 82.90     0.012 A 
HETATM    2  O1  ALE A1402     -10.648 -15.016 -52.519  1.00 91.95    -0.188 OA
HETATM    3  C2  ALE A1402      -8.803 -13.648 -51.787  1.00 92.28     0.028 A 
HETATM    4  O2  ALE A1402      -9.703 -15.163 -54.954  1.00 89.58    -0.188 OA
HETATM    5  C3  ALE A1402      -9.480 -14.364 -52.765  1.00 95.92     0.156 A 
HETATM    6  C4  ALE A1402      -8.979 -14.441 -54.057  1.00 92.28     0.156 A 
HETATM    7  C5  ALE A1402      -7.791 -13.802 -54.391  1.00 86.87     0.029 A 
HETATM    8  C6  ALE A1402      -7.111 -13.084 -53.412  1.00 82.92     0.001 A 
ENDROOT
BRANCH   1   9
HETATM    9  C7  ALE A1402      -6.928 -12.284 -51.140  1.00 82.45     0.211 C 
HETATM   10  O3  ALE A1402      -5.633 -12.851 -50.923  1.00 73.05    -0.216 OA
BRANCH   9  11
HETATM   11  C8  ALE A1402      -6.785 -10.825 -51.577  1.00 96.53     0.327 C 
BRANCH  11  12
HETATM   12  N1  ALE A1402      -7.999 -10.061 -51.258  1.00102.87     0.344 N 
HETATM   13  C9  ALE A1402      -8.190 -10.026 -49.801  1.00107.66     0.328 C 
ENDBRANCH  11  12
ENDBRANCH   9  11
ENDBRANCH   1   9
TORSDOF 3
ENDMDL
MODEL 2
REMARK VINA RESULT:      -5.7      2.532      4.201
REMARK  3 active torsions:
REMARK  status: ('A' for Active; 'I' for Inactive)
REMARK    1  A    between atoms: C1_1  and  C7_11 
REMARK    2  A    between atoms: N1_2  and  C8_12 
REMARK    3  A    between atoms: C7_11  and  C8_12 
ROOT
HETATM    1  C1  ALE A1402      -6.327 -13.545 -51.645  1.00 82.90     0.012 A 
HETATM    2  O1  ALE A1402      -3.586 -14.203 -49.304  1.00 91.95    -0.188 OA
HETATM    3  C2  ALE A1402      -5.471 -13.376 -50.560  1.00 92.28     0.028 A 
HETATM    4  O2  ALE A1402      -3.280 -16.241 -50.916  1.00 89.58    -0.188 OA
HETATM    5  C3  ALE A1402      -4.459 -14.302 -50.343  1.00 95.92     0.156 A 
HETATM    6  C4  ALE A1402      -4.296 -15.382 -51.198  1.00 92.28     0.156 A 
HETATM    7  C5  ALE A1402      -5.146 -15.557 -52.283  1.00 86.87     0.029 A 
HETATM    8  C6  ALE A1402      -6.162 -14.631 -52.502  1.00 82.92     0.001 A 
ENDROOT
BRANCH   1   9
HETATM    9  C7  ALE A1402      -7.345 -12.622 -51.869  1.00 82.45     0.211 C 
HETATM   10  O3  ALE A1402      -8.548 -13.295 -52.252  1.00 73.05    -0.216 OA
BRANCH   9  11
HETATM   11  C8  ALE A1402      -7.594 -11.806 -50.600  1.00 96.53     0.327 C 
BRANCH  11  12
HETATM   12  N1  ALE A1402      -7.713 -10.374 -50.911  1.00102.87     0.344 N 
HETATM   13  C9  ALE A1402      -8.211  -9.654 -49.732  1.00107.66     0.328 C 
ENDBRANCH  11  12
ENDBRANCH   9  11
ENDBRANCH   1   9
TORSDOF 3
ENDMDL
MODEL 3
REMARK VINA RESULT:      -5.6      2.694      3.964
REMARK  3 active torsions:
REMARK  status: ('A' for Active; 'I' for Inactive)
REMARK    1  A    between atoms: C1_1  and  C7_11 
REMARK    2  A    between atoms: N1_2  and  C8_12 
REMARK    3  A    between atoms: C7_11  and  C8_12 
ROOT
HETATM    1  C1  ALE A1402      -6.344 -13.555 -51.683  1.00 82.90     0.012 A 
HETATM    2  O1  ALE A1402      -4.985 -16.610 -53.182  1.00 91.95    -0.188 OA
HETATM    3  C2  ALE A1402      -6.197 -14.617 -52.572  1.00 92.28     0.028 A 
HETATM    4  O2  ALE A1402      -3.378 -16.381 -51.130  1.00 89.58    -0.188 OA
HETATM    5  C3  ALE A1402      -5.189 -15.548 -52.357  1.00 95.92     0.156 A 
HETATM    6  C4  ALE A1402      -4.338 -15.427 -51.268  1.00 92.28     0.156 A 
HETATM    7  C5  ALE A1402      -4.479 -14.370 -50.377  1.00 86.87     0.029 A 
HETATM    8  C6  ALE A1402      -5.487 -13.436 -50.591  1.00 82.92     0.001 A 
ENDROOT
BRANCH   1   9
HETATM    9  C7  ALE A1402      -7.351 -12.617 -51.892  1.00 82.45     0.211 C 
HETATM   10  O3  ALE A1402      -8.570 -13.271 -52.254  1.00 73.05    -0.216 OA
BRANCH   9  11
HETATM   11  C8  ALE A1402      -7.565 -11.794 -50.621  1.00 96.53     0.327 C 
BRANCH  11  12
HETATM   12  N1  ALE A1402      -7.782 -10.376 -50.944  1.00102.87     0.344 N 
HETATM   13  C9  ALE A1402      -8.246  -9.664 -49.745  1.00107.66     0.328 C 
ENDBRANCH  11  12
ENDBRANCH   9  11
ENDBRANCH   1   9
TORSDOF 3
ENDMDL
MODEL 4
REMARK VINA RESULT:      -5.6      2.540      4.533
REMARK  3 active torsions:
REMARK  status: ('A' for Active; 'I' for Inactive)
REMARK    1  A    between atoms: C1_1  and  C7_11 
REMARK    2  A    between atoms: N1_2  and  C8_12 
REMARK    3  A    between atoms: C7_11  and  C8_12 
ROOT
HETATM    1  C1  ALE A1402      -6.811 -12.486 -51.534  1.00 82.90     0.012 A 
HETATM    2  O1  ALE A1402      -8.517 -11.526 -48.437  1.00 91.95    -0.188 OA
HETATM    3  C2  ALE A1402      -7.383 -12.605 -50.271  1.00 92.28     0.028 A 
HETATM    4  O2  ALE A1402      -8.504  -9.213 -49.661  1.00 89.58    -0.188 OA
HETATM    5  C3  ALE A1402      -7.942 -11.485 -49.669  1.00 95.92     0.156 A 
HETATM    6  C4  ALE A1402      -7.935 -10.259 -50.318  1.00 92.28     0.156 A 
HETATM    7  C5  ALE A1402      -7.367 -10.132 -51.580  1.00 86.87     0.029 A 
HETATM    8  C6  ALE A1402      -6.806 -11.253 -52.184  1.00 82.92     0.001 A 
ENDROOT
BRANCH   1   9
HETATM    9  C7  ALE A1402      -6.248 -13.603 -52.144  1.00 82.45     0.211 C 
HETATM   10  O3  ALE A1402      -6.357 -14.743 -51.286  1.00 73.05    -0.216 OA
BRANCH   9  11
HETATM   11  C8  ALE A1402      -6.957 -13.885 -53.469  1.00 96.53     0.327 C 
BRANCH  11  12
HETATM   12  N1  ALE A1402      -8.377 -14.195 -53.249  1.00102.87     0.344 N 
HETATM   13  C9  ALE A1402      -9.070 -14.271 -54.542  1.00107.66     0.328 C 
ENDBRANCH  11  12
ENDBRANCH   9  11
ENDBRANCH   1   9
TORSDOF 3
ENDMDL
MODEL 5
REMARK VINA RESULT:      -5.6      3.399      4.901
REMARK  3 active torsions:
REMARK  status: ('A' for Active; 'I' for Inactive)
REMARK    1  A    between atoms: C1_1  and  C7_11 
REMARK    2  A    between atoms: N1_2  and  C8_12 
REMARK    3  A    between atoms: C7_11  and  C8_12 
ROOT
HETATM    1  C1  ALE A1402      -5.646 -14.459 -50.793  1.00 82.90     0.012 A 
HETATM    2  O1  ALE A1402      -2.385 -15.155 -49.273  1.00 91.95    -0.188 OA
HETATM    3  C2  ALE A1402      -4.574 -14.369 -49.908  1.00 92.28     0.028 A 
HETATM    4  O2  ALE A1402      -2.304 -16.845 -51.269  1.00 89.58    -0.188 OA
HETATM    5  C3  ALE A1402      -3.467 -15.186 -50.096  1.00 95.92     0.156 A 
HETATM    6  C4  ALE A1402      -3.425 -16.083 -51.155  1.00 92.28     0.156 A 
HETATM    7  C5  ALE A1402      -4.490 -16.177 -52.042  1.00 86.87     0.029 A 
HETATM    8  C6  ALE A1402      -5.600 -15.359 -51.855  1.00 82.92     0.001 A 
ENDROOT
BRANCH   1   9
HETATM    9  C7  ALE A1402      -6.759 -13.643 -50.610  1.00 82.45     0.211 C 
HETATM   10  O3  ALE A1402      -6.990 -13.425 -49.216  1.00 73.05    -0.216 OA
BRANCH   9  11
HETATM   11  C8  ALE A1402      -6.542 -12.302 -51.313  1.00 96.53     0.327 C 
BRANCH  11  12
HETATM   12  N1  ALE A1402      -7.733 -11.450 -51.198  1.00102.87     0.344 N 
HETATM   13  C9  ALE A1402      -7.351 -10.043 -51.380  1.00107.66     0.328 C 
ENDBRANCH  11  12
ENDBRANCH   9  11
ENDBRANCH   1   9
TORSDOF 3
ENDMDL
MODEL 6
REMARK VINA RESULT:      -5.5      3.516      5.243
REMARK  3 active torsions:
REMARK  status: ('A' for Active; 'I' for Inactive)
REMARK    1  A    between atoms: C1_1  and  C7_11 
REMARK    2  A    between atoms: N1_2  and  C8_12 
REMARK    3  A    between atoms: C7_11  and  C8_12 
ROOT
HETATM    1  C1  ALE A1402      -5.557 -14.453 -51.419  1.00 82.90     0.012 A 
HETATM    2  O1  ALE A1402      -2.581 -15.116 -49.386  1.00 91.95    -0.188 OA
HETATM    3  C2  ALE A1402      -4.621 -14.321 -50.397  1.00 92.28     0.028 A 
HETATM    4  O2  ALE A1402      -2.284 -16.970 -51.209  1.00 89.58    -0.188 OA
HETATM    5  C3  ALE A1402      -3.534 -15.184 -50.355  1.00 95.92     0.156 A 
HETATM    6  C4  ALE A1402      -3.377 -16.167 -51.321  1.00 92.28     0.156 A 
HETATM    7  C5  ALE A1402      -4.306 -16.304 -52.346  1.00 86.87     0.029 A 
HETATM    8  C6  ALE A1402      -5.396 -15.441 -52.388  1.00 82.92     0.001 A 
ENDROOT
BRANCH   1   9
HETATM    9  C7  ALE A1402      -6.650 -13.592 -51.467  1.00 82.45     0.211 C 
HETATM   10  O3  ALE A1402      -6.216 -12.234 -51.354  1.00 73.05    -0.216 OA
BRANCH   9  11
HETATM   11  C8  ALE A1402      -7.404 -13.784 -52.784  1.00 96.53     0.327 C 
BRANCH  11  12
HETATM   12  N1  ALE A1402      -8.838 -14.001 -52.540  1.00102.87     0.344 N 
HETATM   13  C9  ALE A1402      -9.505 -14.344 -53.804  1.00107.66     0.328 C 
ENDBRANCH  11  12
ENDBRANCH   9  11
ENDBRANCH   1   9
TORSDOF 3
ENDMDL
MODEL 7
REMARK VINA RESULT:      -5.5      2.910      3.680
REMARK  3 active torsions:
REMARK  status: ('A' for Active; 'I' for Inactive)
REMARK    1  A    between atoms: C1_1  and  C7_11 
REMARK    2  A    between atoms: N1_2  and  C8_12 
REMARK    3  A    between atoms: C7_11  and  C8_12 
ROOT
HETATM    1  C1  ALE A1402      -6.409 -14.011 -52.571  1.00 82.90     0.012 A 
HETATM    2  O1  ALE A1402      -5.521 -16.737 -54.853  1.00 91.95    -0.188 OA
HETATM    3  C2  ALE A1402      -6.399 -14.799 -53.719  1.00 92.28     0.028 A 
HETATM    4  O2  ALE A1402      -4.020 -17.376 -52.808  1.00 89.58    -0.188 OA
HETATM    5  C3  ALE A1402      -5.584 -15.922 -53.766  1.00 95.92     0.156 A 
HETATM    6  C4  ALE A1402      -4.788 -16.261 -52.681  1.00 92.28     0.156 A 
HETATM    7  C5  ALE A1402      -4.793 -15.480 -51.532  1.00 86.87     0.029 A 
HETATM    8  C6  ALE A1402      -5.609 -14.354 -51.483  1.00 82.92     0.001 A 
ENDROOT
BRANCH   1   9
HETATM    9  C7  ALE A1402      -7.223 -12.883 -52.517  1.00 82.45     0.211 C 
HETATM   10  O3  ALE A1402      -8.555 -13.250 -52.147  1.00 73.05    -0.216 OA
BRANCH   9  11
HETATM   11  C8  ALE A1402      -6.662 -11.886 -51.502  1.00 96.53     0.327 C 
BRANCH  11  12
HETATM   12  N1  ALE A1402      -7.701 -11.466 -50.550  1.00102.87     0.344 N 
HETATM   13  C9  ALE A1402      -7.917 -10.017 -50.667  1.00107.66     0.328 C 
ENDBRANCH  11  12
ENDBRANCH   9  11
ENDBRANCH   1   9
TORSDOF 3
ENDMDL
MODEL 8
REMARK VINA RESULT:      -5.5      3.364      4.553
REMARK  3 active torsions:
REMARK  status: ('A' for Active; 'I' for Inactive)
REMARK    1  A    between atoms: C1_1  and  C7_11 
REMARK    2  A    between atoms: N1_2  and  C8_12 
REMARK    3  A    between atoms: C7_11  and  C8_12 
ROOT
HETATM    1  C1  ALE A1402      -6.687 -13.389 -50.848  1.00 82.90     0.012 A 
HETATM    2  O1  ALE A1402      -8.532 -11.302 -48.468  1.00 91.95    -0.188 OA
HETATM    3  C2  ALE A1402      -7.331 -13.010 -49.673  1.00 92.28     0.028 A 
HETATM    4  O2  ALE A1402      -8.386  -9.639 -50.483  1.00 89.58    -0.188 OA
HETATM    5  C3  ALE A1402      -7.890 -11.742 -49.584  1.00 95.92     0.156 A 
HETATM    6  C4  ALE A1402      -7.812 -10.860 -50.652  1.00 92.28     0.156 A 
HETATM    7  C5  ALE A1402      -7.173 -11.232 -51.828  1.00 86.87     0.029 A 
HETATM    8  C6  ALE A1402      -6.611 -12.502 -51.920  1.00 82.92     0.001 A 
ENDROOT
BRANCH   1   9
HETATM    9  C7  ALE A1402      -6.124 -14.658 -50.945  1.00 82.45     0.211 C 
HETATM   10  O3  ALE A1402      -5.281 -14.740 -52.099  1.00 73.05    -0.216 OA
BRANCH   9  11
HETATM   11  C8  ALE A1402      -5.307 -14.961 -49.688  1.00 96.53     0.327 C 
BRANCH  11  12
HETATM   12  N1  ALE A1402      -3.954 -14.395 -49.792  1.00102.87     0.344 N 
HETATM   13  C9  ALE A1402      -3.487 -13.990 -48.459  1.00107.66     0.328 C 
ENDBRANCH  11  12
ENDBRANCH   9  11
ENDBRANCH   1   9
TORSDOF 3
ENDMDL
MODEL 9
REMARK VINA RESULT:      -5.5      3.373      5.170
REMARK  3 active torsions:
REMARK  status: ('A' for Active; 'I' for Inactive)
REMARK    1  A    between atoms: C1_1  and  C7_11 
REMARK    2  A    between atoms: N1_2  and  C8_12 
REMARK    3  A    between atoms: C7_11  and  C8_12 
ROOT
HETATM    1  C1  ALE A1402      -6.800 -13.525 -51.122  1.00 82.90     0.012 A 
HETATM    2  O1  ALE A1402      -7.115  -9.993 -52.046  1.00 91.95    -0.188 OA
HETATM    3  C2  ALE A1402      -6.697 -12.362 -51.881  1.00 92.28     0.028 A 
HETATM    4  O2  ALE A1402      -8.201  -9.918 -49.667  1.00 89.58    -0.188 OA
HETATM    5  C3  ALE A1402      -7.180 -11.168 -51.363  1.00 95.92     0.156 A 
HETATM    6  C4  ALE A1402      -7.755 -11.128 -50.101  1.00 92.28     0.156 A 
HETATM    7  C5  ALE A1402      -7.859 -12.284 -49.337  1.00 86.87     0.029 A 
HETATM    8  C6  ALE A1402      -7.378 -13.482 -49.856  1.00 82.92     0.001 A 
ENDROOT
BRANCH   1   9
HETATM    9  C7  ALE A1402      -6.320 -14.727 -51.636  1.00 82.45     0.211 C 
HETATM   10  O3  ALE A1402      -6.003 -14.582 -53.023  1.00 73.05    -0.216 OA
BRANCH   9  11
HETATM   11  C8  ALE A1402      -5.072 -15.159 -50.865  1.00 96.53     0.327 C 
BRANCH  11  12
HETATM   12  N1  ALE A1402      -4.504 -16.390 -51.433  1.00102.87     0.344 N 
HETATM   13  C9  ALE A1402      -3.038 -16.348 -51.331  1.00107.66     0.328 C 
ENDBRANCH  11  12
ENDBRANCH   9  11
ENDBRANCH   1   9
TORSDOF 3
ENDMDL
