MODEL 1
REMARK VINA RESULT:      -5.8      0.000      0.000
REMARK  3 active torsions:
REMARK  status: ('A' for Active; 'I' for Inactive)
REMARK    1  A    between atoms: C1_1  and  C7_11 
REMARK    2  A    between atoms: N1_2  and  C8_12 
REMARK    3  A    between atoms: C7_11  and  C8_12 
ROOT
HETATM    1  C1  ALE A1402      -7.623 -13.008 -52.113  1.00 82.90     0.012 A 
HETATM    2  O1  ALE A1402     -10.636 -15.045 -52.558  1.00 91.95    -0.188 OA
HETATM    3  C2  ALE A1402      -8.811 -13.664 -51.800  1.00 92.28     0.028 A 
HETATM    4  O2  ALE A1402      -9.664 -15.172 -54.984  1.00 89.58    -0.188 OA
HETATM    5  C3  ALE A1402      -9.472 -14.381 -52.789  1.00 95.92     0.156 A 
HETATM    6  C4  ALE A1402      -8.956 -14.448 -54.075  1.00 92.28     0.156 A 
HETATM    7  C5  ALE A1402      -7.771 -13.797 -54.395  1.00 86.87     0.029 A 
HETATM    8  C6  ALE A1402      -7.107 -13.077 -53.405  1.00 82.92     0.001 A 
ENDROOT
BRANCH   1   9
HETATM    9  C7  ALE A1402      -6.955 -12.286 -51.128  1.00 82.45     0.211 C 
HETATM   10  O3  ALE A1402      -5.666 -12.856 -50.883  1.00 73.05    -0.216 OA
BRANCH   9  11
HETATM   11  C8  ALE A1402      -6.799 -10.829 -51.567  1.00 96.53     0.327 C 
BRANCH  11  12
HETATM   12  N1  ALE A1402      -8.009 -10.054 -51.255  1.00102.87     0.344 N 
HETATM   13  C9  ALE A1402      -8.170  -9.960 -49.797  1.00107.66     0.328 C 
ENDBRANCH  11  12
ENDBRANCH   9  11
ENDBRANCH   1   9
TORSDOF 3
ENDMDL
MODEL 2
REMARK VINA RESULT:      -5.7      2.533      4.176
REMARK  3 active torsions:
REMARK  status: ('A' for Active; 'I' for Inactive)
REMARK    1  A    between atoms: C1_1  and  C7_11 
REMARK    2  A    between atoms: N1_2  and  C8_12 
REMARK    3  A    between atoms: C7_11  and  C8_12 
ROOT
HETATM    1  C1  ALE A1402      -6.332 -13.538 -51.673  1.00 82.90     0.012 A 
HETATM    2  O1  ALE A1402      -3.558 -14.221 -49.379  1.00 91.95    -0.188 OA
HETATM    3  C2  ALE A1402      -5.454 -13.375 -50.605  1.00 92.28     0.028 A 
HETATM    4  O2  ALE A1402      -3.308 -16.271 -50.985  1.00 89.58    -0.188 OA
HETATM    5  C3  ALE A1402      -4.450 -14.313 -50.401  1.00 95.92     0.156 A 
HETATM    6  C4  ALE A1402      -4.318 -15.400 -51.253  1.00 92.28     0.156 A 
HETATM    7  C5  ALE A1402      -5.189 -15.568 -52.322  1.00 86.87     0.029 A 
HETATM    8  C6  ALE A1402      -6.196 -14.630 -52.527  1.00 82.92     0.001 A 
ENDROOT
BRANCH   1   9
HETATM    9  C7  ALE A1402      -7.342 -12.603 -51.883  1.00 82.45     0.211 C 
HETATM   10  O3  ALE A1402      -8.558 -13.260 -52.249  1.00 73.05    -0.216 OA
BRANCH   9  11
HETATM   11  C8  ALE A1402      -7.562 -11.782 -50.611  1.00 96.53     0.327 C 
BRANCH  11  12
HETATM   12  N1  ALE A1402      -7.803 -10.368 -50.934  1.00102.87     0.344 N 
HETATM   13  C9  ALE A1402      -8.251  -9.658 -49.728  1.00107.66     0.328 C 
ENDBRANCH  11  12
ENDBRANCH   9  11
ENDBRANCH   1   9
TORSDOF 3
ENDMDL
MODEL 3
REMARK VINA RESULT:      -5.7      2.442      4.629
REMARK  3 active torsions:
REMARK  status: ('A' for Active; 'I' for Inactive)
REMARK    1  A    between atoms: C1_1  and  C7_11 
REMARK    2  A    between atoms: N1_2  and  C8_12 
REMARK    3  A    between atoms: C7_11  and  C8_12 
ROOT
HETATM    1  C1  ALE A1402      -6.930 -12.432 -51.569  1.00 82.90     0.012 A 
HETATM    2  O1  ALE A1402      -8.507 -11.558 -48.379  1.00 91.95    -0.188 OA
HETATM    3  C2  ALE A1402      -7.487 -12.593 -50.303  1.00 92.28     0.028 A 
HETATM    4  O2  ALE A1402      -8.346  -9.176 -49.451  1.00 89.58    -0.188 OA
HETATM    5  C3  ALE A1402      -7.952 -11.478 -49.619  1.00 95.92     0.156 A 
HETATM    6  C4  ALE A1402      -7.867 -10.215 -50.187  1.00 92.28     0.156 A 
HETATM    7  C5  ALE A1402      -7.313 -10.046 -51.450  1.00 86.87     0.029 A 
HETATM    8  C6  ALE A1402      -6.846 -11.163 -52.138  1.00 82.92     0.001 A 
ENDROOT
BRANCH   1   9
HETATM    9  C7  ALE A1402      -6.461 -13.545 -52.261  1.00 82.45     0.211 C 
HETATM   10  O3  ALE A1402      -6.632 -14.727 -51.474  1.00 73.05    -0.216 OA
BRANCH   9  11
HETATM   11  C8  ALE A1402      -7.217 -13.691 -53.582  1.00 96.53     0.327 C 
BRANCH  11  12
HETATM   12  N1  ALE A1402      -8.602 -14.126 -53.349  1.00102.87     0.344 N 
HETATM   13  C9  ALE A1402      -9.226 -14.488 -54.629  1.00107.66     0.328 C 
ENDBRANCH  11  12
ENDBRANCH   9  11
ENDBRANCH   1   9
TORSDOF 3
ENDMDL
MODEL 4
REMARK VINA RESULT:      -5.6      2.698      3.946
REMARK  3 active torsions:
REMARK  status: ('A' for Active; 'I' for Inactive)
REMARK    1  A    between atoms: C1_1  and  C7_11 
REMARK    2  A    between atoms: N1_2  and  C8_12 
REMARK    3  A    between atoms: C7_11  and  C8_12 
ROOT
HETATM    1  C1  ALE A1402      -6.371 -13.578 -51.692  1.00 82.90     0.012 A 
HETATM    2  O1  ALE A1402      -4.983 -16.605 -53.220  1.00 91.95    -0.188 OA
HETATM    3  C2  ALE A1402      -6.213 -14.628 -52.592  1.00 92.28     0.028 A 
HETATM    4  O2  ALE A1402      -3.388 -16.389 -51.157  1.00 89.58    -0.188 OA
HETATM    5  C3  ALE A1402      -5.199 -15.555 -52.383  1.00 95.92     0.156 A 
HETATM    6  C4  ALE A1402      -4.353 -15.440 -51.289  1.00 92.28     0.156 A 
HETATM    7  C5  ALE A1402      -4.506 -14.395 -50.386  1.00 86.87     0.029 A 
HETATM    8  C6  ALE A1402      -5.521 -13.465 -50.594  1.00 82.92     0.001 A 
ENDROOT
BRANCH   1   9
HETATM    9  C7  ALE A1402      -7.384 -12.645 -51.895  1.00 82.45     0.211 C 
HETATM   10  O3  ALE A1402      -8.607 -13.306 -52.230  1.00 73.05    -0.216 OA
BRANCH   9  11
HETATM   11  C8  ALE A1402      -7.580 -11.808 -50.629  1.00 96.53     0.327 C 
BRANCH  11  12
HETATM   12  N1  ALE A1402      -7.828 -10.399 -50.965  1.00102.87     0.344 N 
HETATM   13  C9  ALE A1402      -8.240  -9.671 -49.757  1.00107.66     0.328 C 
ENDBRANCH  11  12
ENDBRANCH   9  11
ENDBRANCH   1   9
TORSDOF 3
ENDMDL
MODEL 5
REMARK VINA RESULT:      -5.5      3.408      4.586
REMARK  3 active torsions:
REMARK  status: ('A' for Active; 'I' for Inactive)
REMARK    1  A    between atoms: C1_1  and  C7_11 
REMARK    2  A    between atoms: N1_2  and  C8_12 
REMARK    3  A    between atoms: C7_11  and  C8_12 
ROOT
HETATM    1  C1  ALE A1402      -6.650 -13.409 -50.870  1.00 82.90     0.012 A 
HETATM    2  O1  ALE A1402      -8.490 -11.311 -48.495  1.00 91.95    -0.188 OA
HETATM    3  C2  ALE A1402      -7.283 -13.021 -49.692  1.00 92.28     0.028 A 
HETATM    4  O2  ALE A1402      -8.391  -9.674 -50.535  1.00 89.58    -0.188 OA
HETATM    5  C3  ALE A1402      -7.857 -11.758 -49.613  1.00 95.92     0.156 A 
HETATM    6  C4  ALE A1402      -7.804 -10.891 -50.694  1.00 92.28     0.156 A 
HETATM    7  C5  ALE A1402      -7.175 -11.272 -51.873  1.00 86.87     0.029 A 
HETATM    8  C6  ALE A1402      -6.599 -12.536 -51.954  1.00 82.92     0.001 A 
ENDROOT
BRANCH   1   9
HETATM    9  C7  ALE A1402      -6.072 -14.672 -50.957  1.00 82.45     0.211 C 
HETATM   10  O3  ALE A1402      -5.292 -14.779 -52.150  1.00 73.05    -0.216 OA
BRANCH   9  11
HETATM   11  C8  ALE A1402      -5.185 -14.922 -49.736  1.00 96.53     0.327 C 
BRANCH  11  12
HETATM   12  N1  ALE A1402      -3.763 -14.792 -50.086  1.00102.87     0.344 N 
HETATM   13  C9  ALE A1402      -3.153 -13.731 -49.273  1.00107.66     0.328 C 
ENDBRANCH  11  12
ENDBRANCH   9  11
ENDBRANCH   1   9
TORSDOF 3
ENDMDL
MODEL 6
REMARK VINA RESULT:      -5.5      3.558      5.285
REMARK  3 active torsions:
REMARK  status: ('A' for Active; 'I' for Inactive)
REMARK    1  A    between atoms: C1_1  and  C7_11 
REMARK    2  A    between atoms: N1_2  and  C8_12 
REMARK    3  A    between atoms: C7_11  and  C8_12 
ROOT
HETATM    1  C1  ALE A1402      -5.557 -14.527 -51.424  1.00 82.90     0.012 A 
HETATM    2  O1  ALE A1402      -2.564 -15.083 -49.386  1.00 91.95    -0.188 OA
HETATM    3  C2  ALE A1402      -4.620 -14.351 -50.410  1.00 92.28     0.028 A 
HETATM    4  O2  ALE A1402      -2.243 -16.984 -51.156  1.00 89.58    -0.188 OA
HETATM    5  C3  ALE A1402      -3.519 -15.195 -50.348  1.00 95.92     0.156 A 
HETATM    6  C4  ALE A1402      -3.349 -16.202 -51.287  1.00 92.28     0.156 A 
HETATM    7  C5  ALE A1402      -4.280 -16.384 -52.302  1.00 86.87     0.029 A 
HETATM    8  C6  ALE A1402      -5.384 -15.540 -52.365  1.00 82.92     0.001 A 
ENDROOT
BRANCH   1   9
HETATM    9  C7  ALE A1402      -6.665 -13.686 -51.492  1.00 82.45     0.211 C 
HETATM   10  O3  ALE A1402      -6.254 -12.319 -51.403  1.00 73.05    -0.216 OA
BRANCH   9  11
HETATM   11  C8  ALE A1402      -7.411 -13.916 -52.808  1.00 96.53     0.327 C 
BRANCH  11  12
HETATM   12  N1  ALE A1402      -8.862 -13.981 -52.584  1.00102.87     0.344 N 
HETATM   13  C9  ALE A1402      -9.532 -14.399 -53.822  1.00107.66     0.328 C 
ENDBRANCH  11  12
ENDBRANCH   9  11
ENDBRANCH   1   9
TORSDOF 3
ENDMDL
MODEL 7
REMARK VINA RESULT:      -5.5      1.731      2.192
REMARK  3 active torsions:
REMARK  status: ('A' for Active; 'I' for Inactive)
REMARK    1  A    between atoms: C1_1  and  C7_11 
REMARK    2  A    between atoms: N1_2  and  C8_12 
REMARK    3  A    between atoms: C7_11  and  C8_12 
ROOT
HETATM    1  C1  ALE A1402      -6.527 -13.849 -52.363  1.00 82.90     0.012 A 
HETATM    2  O1  ALE A1402      -8.402 -13.620 -55.502  1.00 91.95    -0.188 OA
HETATM    3  C2  ALE A1402      -7.432 -13.375 -53.308  1.00 92.28     0.028 A 
HETATM    4  O2  ALE A1402      -6.932 -15.720 -56.027  1.00 89.58    -0.188 OA
HETATM    5  C3  ALE A1402      -7.542 -14.026 -54.530  1.00 95.92     0.156 A 
HETATM    6  C4  ALE A1402      -6.762 -15.140 -54.808  1.00 92.28     0.156 A 
HETATM    7  C5  ALE A1402      -5.858 -15.619 -53.869  1.00 86.87     0.029 A 
HETATM    8  C6  ALE A1402      -5.746 -14.967 -52.644  1.00 82.92     0.001 A 
ENDROOT
BRANCH   1   9
HETATM    9  C7  ALE A1402      -6.410 -13.201 -51.136  1.00 82.45     0.211 C 
HETATM   10  O3  ALE A1402      -5.080 -13.337 -50.628  1.00 73.05    -0.216 OA
BRANCH   9  11
HETATM   11  C8  ALE A1402      -6.751 -11.718 -51.298  1.00 96.53     0.327 C 
BRANCH  11  12
HETATM   12  N1  ALE A1402      -7.708 -11.284 -50.270  1.00102.87     0.344 N 
HETATM   13  C9  ALE A1402      -8.093  -9.888 -50.516  1.00107.66     0.328 C 
ENDBRANCH  11  12
ENDBRANCH   9  11
ENDBRANCH   1   9
TORSDOF 3
ENDMDL
MODEL 8
REMARK VINA RESULT:      -5.4      3.509      4.921
REMARK  3 active torsions:
REMARK  status: ('A' for Active; 'I' for Inactive)
REMARK    1  A    between atoms: C1_1  and  C7_11 
REMARK    2  A    between atoms: N1_2  and  C8_12 
REMARK    3  A    between atoms: C7_11  and  C8_12 
ROOT
HETATM    1  C1  ALE A1402      -5.331 -14.116 -50.678  1.00 82.90     0.012 A 
HETATM    2  O1  ALE A1402      -4.547 -16.991 -52.810  1.00 91.95    -0.188 OA
HETATM    3  C2  ALE A1402      -5.479 -15.082 -51.669  1.00 92.28     0.028 A 
HETATM    4  O2  ALE A1402      -2.394 -16.952 -51.323  1.00 89.58    -0.188 OA
HETATM    5  C3  ALE A1402      -4.472 -16.020 -51.860  1.00 95.92     0.156 A 
HETATM    6  C4  ALE A1402      -3.331 -15.999 -51.072  1.00 92.28     0.156 A 
HETATM    7  C5  ALE A1402      -3.176 -15.038 -50.080  1.00 86.87     0.029 A 
HETATM    8  C6  ALE A1402      -4.184 -14.098 -49.888  1.00 82.92     0.001 A 
ENDROOT
BRANCH   1   9
HETATM    9  C7  ALE A1402      -6.335 -13.173 -50.481  1.00 82.45     0.211 C 
HETATM   10  O3  ALE A1402      -6.109 -12.027 -51.307  1.00 73.05    -0.216 OA
BRANCH   9  11
HETATM   11  C8  ALE A1402      -7.697 -13.786 -50.813  1.00 96.53     0.327 C 
BRANCH  11  12
HETATM   12  N1  ALE A1402      -8.347 -13.057 -51.911  1.00102.87     0.344 N 
HETATM   13  C9  ALE A1402      -9.163 -13.987 -52.704  1.00107.66     0.328 C 
ENDBRANCH  11  12
ENDBRANCH   9  11
ENDBRANCH   1   9
TORSDOF 3
ENDMDL
MODEL 9
REMARK VINA RESULT:      -5.3      4.125      4.925
REMARK  3 active torsions:
REMARK  status: ('A' for Active; 'I' for Inactive)
REMARK    1  A    between atoms: C1_1  and  C7_11 
REMARK    2  A    between atoms: N1_2  and  C8_12 
REMARK    3  A    between atoms: C7_11  and  C8_12 
ROOT
HETATM    1  C1  ALE A1402      -4.693 -14.872 -51.067  1.00 82.90     0.012 A 
HETATM    2  O1  ALE A1402      -6.707 -11.818 -51.280  1.00 91.95    -0.188 OA
HETATM    3  C2  ALE A1402      -5.208 -13.624 -50.727  1.00 92.28     0.028 A 
HETATM    4  O2  ALE A1402      -7.534 -13.036 -53.443  1.00 89.58    -0.188 OA
HETATM    5  C3  ALE A1402      -6.160 -13.035 -51.548  1.00 95.92     0.156 A 
HETATM    6  C4  ALE A1402      -6.599 -13.680 -52.695  1.00 92.28     0.156 A 
HETATM    7  C5  ALE A1402      -6.091 -14.926 -53.041  1.00 86.87     0.029 A 
HETATM    8  C6  ALE A1402      -5.135 -15.518 -52.220  1.00 82.92     0.001 A 
ENDROOT
BRANCH   1   9
HETATM    9  C7  ALE A1402      -3.737 -15.468 -50.250  1.00 82.45     0.211 C 
HETATM   10  O3  ALE A1402      -2.862 -16.290 -51.029  1.00 73.05    -0.216 OA
BRANCH   9  11
HETATM   11  C8  ALE A1402      -2.925 -14.391 -49.529  1.00 96.53     0.327 C 
BRANCH  11  12
HETATM   12  N1  ALE A1402      -2.753 -14.727 -48.108  1.00102.87     0.344 N 
HETATM   13  C9  ALE A1402      -1.388 -15.220 -47.881  1.00107.66     0.328 C 
ENDBRANCH  11  12
ENDBRANCH   9  11
ENDBRANCH   1   9
TORSDOF 3
ENDMDL
