MODEL 1
REMARK VINA RESULT:     -13.1      0.000      0.000
REMARK  7 active torsions:
REMARK  status: ('A' for Active; 'I' for Inactive)
REMARK    1  A    between atoms: C5_5  and  C7_7 
REMARK    2  A    between atoms: C9_9  and  N13_13 
REMARK    3  A    between atoms: N13_13  and  C14_14 
REMARK    4  A    between atoms: C16_16  and  N21_21 
REMARK       I    between atoms: N21_21  and  C22_22 
REMARK    5  A    between atoms: C22_22  and  C23_23 
REMARK    6  A    between atoms: C27_26  and  C46_30 
REMARK    7  A    between atoms: C46_30  and  N48_31 
ROOT
HETATM    1  C1  STI   202      16.397 100.340  50.537  1.00  0.00    -0.001 A 
HETATM    2  C2  STI   202      17.342 101.262  51.100  1.00  0.00     0.095 A 
HETATM    3  N3  STI   202      17.155 101.761  52.393  1.00  0.00    -0.243 NA
HETATM    4  C4  STI   202      16.072 101.401  53.189  1.00  0.00     0.097 A 
HETATM    5  C5  STI   202      15.077 100.473  52.686  1.00  0.00     0.020 A 
HETATM    6  C6  STI   202      15.259  99.946  51.338  1.00  0.00     0.057 A 
ENDROOT
BRANCH   5   7
HETATM    7  C7  STI   202      13.913 100.102  53.559  1.00  0.00     0.099 A 
HETATM    8  N8  STI   202      14.069 100.275  54.920  1.00  0.00    -0.061 NA
HETATM    9  C9  STI   202      13.077  99.975  55.804  1.00  0.00     0.728 A 
HETATM   10  N10 STI   202      11.868  99.482  55.341  1.00  0.00    -0.059 NA
HETATM   11  C11 STI   202      11.651  99.288  53.987  1.00  0.00     0.119 A 
HETATM   12  C12 STI   202      12.668  99.593  53.046  1.00  0.00     0.041 A 
BRANCH   9  13
HETATM   13  N13 STI   202      13.327 100.186  57.163  1.00  0.00    -0.190 N 
HETATM   14  H   STI   202      14.309 100.526  57.464  1.00  0.00     0.184 HD
BRANCH  13  15
HETATM   15  C14 STI   202      12.352  99.975  58.153  1.00  0.00     0.052 A 
HETATM   16  C15 STI   202      12.426  98.787  58.945  1.00  0.00     0.087 A 
HETATM   17  C16 STI   202      11.441  98.519  59.995  1.00  0.00     0.042 A 
HETATM   18  C17 STI   202      10.405  99.469  60.208  1.00  0.00     0.013 A 
HETATM   19  C18 STI   202      10.320 100.671  59.418  1.00  0.00    -0.002 A 
HETATM   20  C19 STI   202      11.281 100.948  58.385  1.00  0.00    -0.009 A 
HETATM   21  C20 STI   202      11.126 102.263  57.584  1.00  0.00     0.032 C 
BRANCH  17  22
HETATM   22  N21 STI   202      11.452  97.346  60.838  1.00  0.00    -0.325 N 
HETATM   23  C22 STI   202      12.426  96.373  60.948  1.00  0.00     0.253 C 
HETATM   24  O29 STI   202      13.352  96.231  60.172  1.00  0.00    -0.268 OA
HETATM   25  H   STI   202      10.582  97.213  61.468  1.00  0.00     0.169 HD
BRANCH  23  26
HETATM   26  C23 STI   202      12.355  95.400  62.078  1.00  0.00     0.034 A 
HETATM   27  C25 STI   202      13.532  94.630  62.481  1.00  0.00     0.036 A 
HETATM   28  C26 STI   202      13.432  93.684  63.562  1.00  0.00     0.029 A 
HETATM   29  C27 STI   202      12.160  93.505  64.242  1.00  0.00    -0.011 A 
HETATM   30  C28 STI   202      11.012  94.283  63.827  1.00  0.00    -0.007 A 
HETATM   31  C29 STI   202      11.101  95.212  62.768  1.00  0.00    -0.000 A 
BRANCH  29  32
HETATM   32  C46 STI   202      11.970  92.503  65.385  1.00  0.00     0.273 C 
BRANCH  32  33
HETATM   33  N48 STI   202      10.755  91.635  65.355  1.00  0.00     0.145 N 
HETATM   34  C49 STI   202      10.593  90.850  66.652  1.00  0.00     0.286 C 
HETATM   35  C50 STI   202       9.315  89.958  66.621  1.00  0.00     0.286 C 
HETATM   36  N51 STI   202       9.386  89.018  65.426  1.00  0.00     0.143 N 
HETATM   37  C52 STI   202       9.539  89.794  64.128  1.00  0.00     0.286 C 
HETATM   38  C54 STI   202       8.211  88.130  65.435  1.00  0.00     0.285 C 
HETATM   39  C53 STI   202      10.797  90.700  64.181  1.00  0.00     0.286 C 
ENDBRANCH  32  33
ENDBRANCH  29  32
ENDBRANCH  23  26
ENDBRANCH  17  22
ENDBRANCH  13  15
ENDBRANCH   9  13
ENDBRANCH   5   7
TORSDOF 7
ENDMDL
MODEL 2
REMARK VINA RESULT:     -10.9      3.385     12.318
REMARK  7 active torsions:
REMARK  status: ('A' for Active; 'I' for Inactive)
REMARK    1  A    between atoms: C5_5  and  C7_7 
REMARK    2  A    between atoms: C9_9  and  N13_13 
REMARK    3  A    between atoms: N13_13  and  C14_14 
REMARK    4  A    between atoms: C16_16  and  N21_21 
REMARK       I    between atoms: N21_21  and  C22_22 
REMARK    5  A    between atoms: C22_22  and  C23_23 
REMARK    6  A    between atoms: C27_26  and  C46_30 
REMARK    7  A    between atoms: C46_30  and  N48_31 
ROOT
HETATM    1  C1  STI   202       7.616  87.060  59.738  1.00  0.00    -0.001 A 
HETATM    2  C2  STI   202       6.667  86.864  58.679  1.00  0.00     0.095 A 
HETATM    3  N3  STI   202       5.778  87.885  58.332  1.00  0.00    -0.243 NA
HETATM    4  C4  STI   202       5.761  89.119  58.975  1.00  0.00     0.097 A 
HETATM    5  C5  STI   202       6.692  89.389  60.054  1.00  0.00     0.020 A 
HETATM    6  C6  STI   202       7.624  88.331  60.428  1.00  0.00     0.057 A 
ENDROOT
BRANCH   5   7
HETATM    7  C7  STI   202       6.654  90.725  60.737  1.00  0.00     0.099 A 
HETATM    8  N8  STI   202       7.390  90.860  61.898  1.00  0.00    -0.061 NA
HETATM    9  C9  STI   202       7.431  92.028  62.596  1.00  0.00     0.728 A 
HETATM   10  N10 STI   202       6.719  93.127  62.142  1.00  0.00    -0.059 NA
HETATM   11  C11 STI   202       5.963  93.054  60.984  1.00  0.00     0.119 A 
HETATM   12  C12 STI   202       5.904  91.849  60.238  1.00  0.00     0.041 A 
BRANCH   9  13
HETATM   13  N13 STI   202       8.206  92.068  63.758  1.00  0.00    -0.190 N 
HETATM   14  H   STI   202       7.860  91.536  64.633  1.00  0.00     0.184 HD
BRANCH  13  15
HETATM   15  C14 STI   202       9.420  92.774  63.832  1.00  0.00     0.052 A 
HETATM   16  C15 STI   202       9.639  93.859  62.927  1.00  0.00     0.087 A 
HETATM   17  C16 STI   202      10.880  94.634  62.965  1.00  0.00     0.042 A 
HETATM   18  C17 STI   202      11.868  94.280  63.926  1.00  0.00     0.013 A 
HETATM   19  C18 STI   202      11.659  93.190  64.845  1.00  0.00    -0.002 A 
HETATM   20  C19 STI   202      10.444  92.422  64.820  1.00  0.00    -0.009 A 
HETATM   21  C20 STI   202      10.292  91.271  65.843  1.00  0.00     0.032 C 
BRANCH  17  22
HETATM   22  N21 STI   202      11.172  95.743  62.089  1.00  0.00    -0.325 N 
HETATM   23  C22 STI   202      12.326  95.996  61.373  1.00  0.00     0.253 C 
HETATM   24  O29 STI   202      13.385  95.422  61.544  1.00  0.00    -0.268 OA
HETATM   25  H   STI   202      10.381  96.474  61.977  1.00  0.00     0.169 HD
BRANCH  23  26
HETATM   26  C23 STI   202      12.310  97.053  60.319  1.00  0.00     0.034 A 
HETATM   27  C25 STI   202      11.216  98.021  60.242  1.00  0.00     0.036 A 
HETATM   28  C26 STI   202      11.216  99.019  59.204  1.00  0.00     0.029 A 
HETATM   29  C27 STI   202      12.305  99.054  58.243  1.00  0.00    -0.011 A 
HETATM   30  C28 STI   202      13.379  98.088  58.345  1.00  0.00    -0.007 A 
HETATM   31  C29 STI   202      13.388  97.106  59.359  1.00  0.00    -0.000 A 
BRANCH  29  32
HETATM   32  C46 STI   202      12.364 100.070  57.099  1.00  0.00     0.273 C 
BRANCH  32  33
HETATM   33  N48 STI   202      13.083  99.673  55.851  1.00  0.00     0.145 N 
HETATM   34  C49 STI   202      14.386 100.446  55.684  1.00  0.00     0.286 C 
HETATM   35  C50 STI   202      15.140 100.016  54.388  1.00  0.00     0.286 C 
HETATM   36  N51 STI   202      14.231 100.225  53.186  1.00  0.00     0.143 N 
HETATM   37  C52 STI   202      12.932  99.451  53.341  1.00  0.00     0.286 C 
HETATM   38  C54 STI   202      14.966  99.883  51.956  1.00  0.00     0.285 C 
HETATM   39  C53 STI   202      12.205  99.865  54.647  1.00  0.00     0.286 C 
ENDBRANCH  32  33
ENDBRANCH  29  32
ENDBRANCH  23  26
ENDBRANCH  17  22
ENDBRANCH  13  15
ENDBRANCH   9  13
ENDBRANCH   5   7
TORSDOF 7
ENDMDL
MODEL 3
REMARK VINA RESULT:     -10.5      3.167     13.706
REMARK  7 active torsions:
REMARK  status: ('A' for Active; 'I' for Inactive)
REMARK    1  A    between atoms: C5_5  and  C7_7 
REMARK    2  A    between atoms: C9_9  and  N13_13 
REMARK    3  A    between atoms: N13_13  and  C14_14 
REMARK    4  A    between atoms: C16_16  and  N21_21 
REMARK       I    between atoms: N21_21  and  C22_22 
REMARK    5  A    between atoms: C22_22  and  C23_23 
REMARK    6  A    between atoms: C27_26  and  C46_30 
REMARK    7  A    between atoms: C46_30  and  N48_31 
ROOT
HETATM    1  C1  STI   202       2.887  90.209  67.478  1.00  0.00    -0.001 A 
HETATM    2  C2  STI   202       3.848  89.998  68.523  1.00  0.00     0.095 A 
HETATM    3  N3  STI   202       5.176  90.401  68.351  1.00  0.00    -0.243 NA
HETATM    4  C4  STI   202       5.631  91.015  67.188  1.00  0.00     0.097 A 
HETATM    5  C5  STI   202       4.715  91.262  66.090  1.00  0.00     0.020 A 
HETATM    6  C6  STI   202       3.328  90.844  66.256  1.00  0.00     0.057 A 
ENDROOT
BRANCH   5   7
HETATM    7  C7  STI   202       5.228  91.922  64.843  1.00  0.00     0.099 A 
HETATM    8  N8  STI   202       6.552  91.705  64.516  1.00  0.00    -0.061 NA
HETATM    9  C9  STI   202       7.120  92.251  63.405  1.00  0.00     0.728 A 
HETATM   10  N10 STI   202       6.361  93.051  62.566  1.00  0.00    -0.059 NA
HETATM   11  C11 STI   202       5.028  93.304  62.840  1.00  0.00     0.119 A 
HETATM   12  C12 STI   202       4.412  92.747  63.990  1.00  0.00     0.041 A 
BRANCH   9  13
HETATM   13  N13 STI   202       8.467  91.972  63.156  1.00  0.00    -0.190 N 
HETATM   14  H   STI   202       8.726  91.025  62.701  1.00  0.00     0.184 HD
BRANCH  13  15
HETATM   15  C14 STI   202       9.497  92.873  63.474  1.00  0.00     0.052 A 
HETATM   16  C15 STI   202       9.797  93.925  62.553  1.00  0.00     0.087 A 
HETATM   17  C16 STI   202      10.855  94.896  62.837  1.00  0.00     0.042 A 
HETATM   18  C17 STI   202      11.581  94.768  64.053  1.00  0.00     0.013 A 
HETATM   19  C18 STI   202      11.288  93.714  64.991  1.00  0.00    -0.002 A 
HETATM   20  C19 STI   202      10.251  92.754  64.726  1.00  0.00    -0.009 A 
HETATM   21  C20 STI   202       9.992  91.655  65.784  1.00  0.00     0.032 C 
BRANCH  17  22
HETATM   22  N21 STI   202      11.213  95.987  61.961  1.00  0.00    -0.325 N 
HETATM   23  C22 STI   202      12.356  96.142  61.201  1.00  0.00     0.253 C 
HETATM   24  O29 STI   202      13.363  95.472  61.323  1.00  0.00    -0.268 OA
HETATM   25  H   STI   202      10.489  96.788  61.889  1.00  0.00     0.169 HD
BRANCH  23  26
HETATM   26  C23 STI   202      12.395  97.211  60.159  1.00  0.00     0.034 A 
HETATM   27  C25 STI   202      11.322  98.199  60.055  1.00  0.00     0.036 A 
HETATM   28  C26 STI   202      11.375  99.208  59.029  1.00  0.00     0.029 A 
HETATM   29  C27 STI   202      12.498  99.233  58.107  1.00  0.00    -0.011 A 
HETATM   30  C28 STI   202      13.551  98.248  58.235  1.00  0.00    -0.007 A 
HETATM   31  C29 STI   202      13.506  97.255  59.237  1.00  0.00    -0.000 A 
BRANCH  29  32
HETATM   32  C46 STI   202      12.614 100.261  56.977  1.00  0.00     0.273 C 
BRANCH  32  33
HETATM   33  N48 STI   202      13.313  99.843  55.725  1.00  0.00     0.145 N 
HETATM   34  C49 STI   202      14.698 100.473  55.618  1.00  0.00     0.286 C 
HETATM   35  C50 STI   202      15.428 100.020  54.316  1.00  0.00     0.286 C 
HETATM   36  N51 STI   202      14.576 100.382  53.109  1.00  0.00     0.143 N 
HETATM   37  C52 STI   202      13.196  99.751  53.205  1.00  0.00     0.286 C 
HETATM   38  C54 STI   202      15.296 100.015  51.878  1.00  0.00     0.285 C 
HETATM   39  C53 STI   202      12.490 100.184  54.516  1.00  0.00     0.286 C 
ENDBRANCH  32  33
ENDBRANCH  29  32
ENDBRANCH  23  26
ENDBRANCH  17  22
ENDBRANCH  13  15
ENDBRANCH   9  13
ENDBRANCH   5   7
TORSDOF 7
ENDMDL
MODEL 4
REMARK VINA RESULT:     -10.4      3.396     12.199
REMARK  7 active torsions:
REMARK  status: ('A' for Active; 'I' for Inactive)
REMARK    1  A    between atoms: C5_5  and  C7_7 
REMARK    2  A    between atoms: C9_9  and  N13_13 
REMARK    3  A    between atoms: N13_13  and  C14_14 
REMARK    4  A    between atoms: C16_16  and  N21_21 
REMARK       I    between atoms: N21_21  and  C22_22 
REMARK    5  A    between atoms: C22_22  and  C23_23 
REMARK    6  A    between atoms: C27_26  and  C46_30 
REMARK    7  A    between atoms: C46_30  and  N48_31 
ROOT
HETATM    1  C1  STI   202       4.359  93.504  59.506  1.00  0.00    -0.001 A 
HETATM    2  C2  STI   202       4.053  92.168  59.080  1.00  0.00     0.095 A 
HETATM    3  N3  STI   202       4.424  91.075  59.869  1.00  0.00    -0.243 NA
HETATM    4  C4  STI   202       5.092  91.214  61.081  1.00  0.00     0.097 A 
HETATM    5  C5  STI   202       5.434  92.535  61.575  1.00  0.00     0.020 A 
HETATM    6  C6  STI   202       5.055  93.684  60.761  1.00  0.00     0.057 A 
ENDROOT
BRANCH   5   7
HETATM    7  C7  STI   202       6.159  92.662  62.883  1.00  0.00     0.099 A 
HETATM    8  N8  STI   202       7.500  92.331  62.893  1.00  0.00    -0.061 NA
HETATM    9  C9  STI   202       8.255  92.413  64.024  1.00  0.00     0.728 A 
HETATM   10  N10 STI   202       7.678  92.841  65.208  1.00  0.00    -0.059 NA
HETATM   11  C11 STI   202       6.338  93.187  65.261  1.00  0.00     0.119 A 
HETATM   12  C12 STI   202       5.530  93.111  64.098  1.00  0.00     0.041 A 
BRANCH   9  13
HETATM   13  N13 STI   202       9.605  92.061  63.934  1.00  0.00    -0.190 N 
HETATM   14  H   STI   202       9.867  91.012  63.904  1.00  0.00     0.184 HD
BRANCH  13  15
HETATM   15  C14 STI   202      10.634  93.016  63.883  1.00  0.00     0.052 A 
HETATM   16  C15 STI   202      10.545  94.069  62.920  1.00  0.00     0.087 A 
HETATM   17  C16 STI   202      11.584  95.096  62.828  1.00  0.00     0.042 A 
HETATM   18  C17 STI   202      12.689  95.021  63.719  1.00  0.00     0.013 A 
HETATM   19  C18 STI   202      12.791  93.966  64.696  1.00  0.00    -0.002 A 
HETATM   20  C19 STI   202      11.777  92.952  64.799  1.00  0.00    -0.009 A 
HETATM   21  C20 STI   202      11.954  91.856  65.877  1.00  0.00     0.032 C 
BRANCH  17  22
HETATM   22  N21 STI   202      11.562  96.191  61.886  1.00  0.00    -0.325 N 
HETATM   23  C22 STI   202      12.427  96.445  60.840  1.00  0.00     0.253 C 
HETATM   24  O29 STI   202      13.497  95.891  60.678  1.00  0.00    -0.268 OA
HETATM   25  H   STI   202      10.762  96.907  62.018  1.00  0.00     0.169 HD
BRANCH  23  26
HETATM   26  C23 STI   202      12.058  97.479  59.828  1.00  0.00     0.034 A 
HETATM   27  C25 STI   202      10.952  97.259  58.896  1.00  0.00     0.036 A 
HETATM   28  C26 STI   202      10.630  98.265  57.918  1.00  0.00     0.029 A 
HETATM   29  C27 STI   202      11.409  99.491  57.868  1.00  0.00    -0.011 A 
HETATM   30  C28 STI   202      12.495  99.687  58.804  1.00  0.00    -0.007 A 
HETATM   31  C29 STI   202      12.818  98.706  59.766  1.00  0.00    -0.000 A 
BRANCH  29  32
HETATM   32  C46 STI   202      11.141 100.597  56.842  1.00  0.00     0.273 C 
BRANCH  32  33
HETATM   33  N48 STI   202      11.944 100.587  55.582  1.00  0.00     0.145 N 
HETATM   34  C49 STI   202      11.566  99.414  54.685  1.00  0.00     0.286 C 
HETATM   35  C50 STI   202      12.396  99.418  53.365  1.00  0.00     0.286 C 
HETATM   36  N51 STI   202      13.879  99.382  53.703  1.00  0.00     0.143 N 
HETATM   37  C52 STI   202      14.265 100.554  54.592  1.00  0.00     0.286 C 
HETATM   38  C54 STI   202      14.661  99.319  52.457  1.00  0.00     0.285 C 
HETATM   39  C53 STI   202      13.414 100.557  55.888  1.00  0.00     0.286 C 
ENDBRANCH  32  33
ENDBRANCH  29  32
ENDBRANCH  23  26
ENDBRANCH  17  22
ENDBRANCH  13  15
ENDBRANCH   9  13
ENDBRANCH   5   7
TORSDOF 7
ENDMDL
MODEL 5
REMARK VINA RESULT:     -10.1      2.386     13.797
REMARK  7 active torsions:
REMARK  status: ('A' for Active; 'I' for Inactive)
REMARK    1  A    between atoms: C5_5  and  C7_7 
REMARK    2  A    between atoms: C9_9  and  N13_13 
REMARK    3  A    between atoms: N13_13  and  C14_14 
REMARK    4  A    between atoms: C16_16  and  N21_21 
REMARK       I    between atoms: N21_21  and  C22_22 
REMARK    5  A    between atoms: C22_22  and  C23_23 
REMARK    6  A    between atoms: C27_26  and  C46_30 
REMARK    7  A    between atoms: C46_30  and  N48_31 
ROOT
HETATM    1  C1  STI   202       8.360  89.604  69.589  1.00  0.00    -0.001 A 
HETATM    2  C2  STI   202       7.128  89.096  70.120  1.00  0.00     0.095 A 
HETATM    3  N3  STI   202       5.913  89.406  69.501  1.00  0.00    -0.243 NA
HETATM    4  C4  STI   202       5.830  90.204  68.364  1.00  0.00     0.097 A 
HETATM    5  C5  STI   202       7.035  90.752  67.772  1.00  0.00     0.020 A 
HETATM    6  C6  STI   202       8.309  90.438  68.408  1.00  0.00     0.057 A 
ENDROOT
BRANCH   5   7
HETATM    7  C7  STI   202       6.922  91.614  66.547  1.00  0.00     0.099 A 
HETATM    8  N8  STI   202       7.939  91.521  65.618  1.00  0.00    -0.061 NA
HETATM    9  C9  STI   202       7.936  92.254  64.469  1.00  0.00     0.728 A 
HETATM   10  N10 STI   202       6.889  93.123  64.210  1.00  0.00    -0.059 NA
HETATM   11  C11 STI   202       5.840  93.259  65.104  1.00  0.00     0.119 A 
HETATM   12  C12 STI   202       5.819  92.507  66.307  1.00  0.00     0.041 A 
BRANCH   9  13
HETATM   13  N13 STI   202       9.007  92.089  63.587  1.00  0.00    -0.190 N 
HETATM   14  H   STI   202       8.977  91.271  62.880  1.00  0.00     0.184 HD
BRANCH  13  15
HETATM   15  C14 STI   202      10.122  92.946  63.583  1.00  0.00     0.052 A 
HETATM   16  C15 STI   202      10.147  94.033  62.656  1.00  0.00     0.087 A 
HETATM   17  C16 STI   202      11.280  94.961  62.613  1.00  0.00     0.042 A 
HETATM   18  C17 STI   202      12.358  94.753  63.517  1.00  0.00     0.013 A 
HETATM   19  C18 STI   202      12.343  93.661  64.458  1.00  0.00    -0.002 A 
HETATM   20  C19 STI   202      11.238  92.744  64.512  1.00  0.00    -0.009 A 
HETATM   21  C20 STI   202      11.293  91.601  65.553  1.00  0.00     0.032 C 
BRANCH  17  22
HETATM   22  N21 STI   202      11.376  96.084  61.711  1.00  0.00    -0.325 N 
HETATM   23  C22 STI   202      12.398  96.403  60.838  1.00  0.00     0.253 C 
HETATM   24  O29 STI   202      13.502  95.894  60.852  1.00  0.00    -0.268 OA
HETATM   25  H   STI   202      10.535  96.765  61.718  1.00  0.00     0.169 HD
BRANCH  23  26
HETATM   26  C23 STI   202      12.168  97.455  59.804  1.00  0.00     0.034 A 
HETATM   27  C25 STI   202      13.206  98.435  59.485  1.00  0.00     0.036 A 
HETATM   28  C26 STI   202      12.952  99.451  58.497  1.00  0.00     0.029 A 
HETATM   29  C27 STI   202      11.663  99.490  57.826  1.00  0.00    -0.011 A 
HETATM   30  C28 STI   202      10.654  98.506  58.156  1.00  0.00    -0.007 A 
HETATM   31  C29 STI   202      10.895  97.507  59.124  1.00  0.00    -0.000 A 
BRANCH  29  32
HETATM   32  C46 STI   202      11.310 100.553  56.781  1.00  0.00     0.273 C 
BRANCH  32  33
HETATM   33  N48 STI   202      12.115 100.587  55.523  1.00  0.00     0.145 N 
HETATM   34  C49 STI   202      11.702  99.476  54.562  1.00  0.00     0.286 C 
HETATM   35  C50 STI   202      12.535  99.527  53.245  1.00  0.00     0.286 C 
HETATM   36  N51 STI   202      14.016  99.426  53.582  1.00  0.00     0.143 N 
HETATM   37  C52 STI   202      14.436 100.535  54.533  1.00  0.00     0.286 C 
HETATM   38  C54 STI   202      14.798  99.406  52.334  1.00  0.00     0.285 C 
HETATM   39  C53 STI   202      13.582 100.494  55.827  1.00  0.00     0.286 C 
ENDBRANCH  32  33
ENDBRANCH  29  32
ENDBRANCH  23  26
ENDBRANCH  17  22
ENDBRANCH  13  15
ENDBRANCH   9  13
ENDBRANCH   5   7
TORSDOF 7
ENDMDL
