MODEL 1
REMARK VINA RESULT:      -4.8      0.000      0.000
REMARK  2 active torsions:
REMARK  status: ('A' for Active; 'I' for Inactive)
REMARK    1  A    between atoms: C2_2  and  N2_3 
REMARK       I    between atoms: N2_3  and  C7_12 
REMARK    2  A    between atoms: C5_8  and  C6_10 
ROOT
HETATM    1  C1  NAG D1381      -7.566 -13.149 -52.571  1.00 68.49     0.169 C 
HETATM    2  C2  NAG D1381      -6.783 -14.426 -52.871  1.00 69.49     0.169 C 
HETATM    3  C3  NAG D1381      -6.833 -14.666 -54.378  1.00 64.46     0.210 C 
HETATM    4  O3  NAG D1381      -6.529 -16.045 -54.610  1.00 65.48    -0.218 OA
HETATM    5  C4  NAG D1381      -8.214 -14.348 -54.989  1.00 65.82     0.214 C 
HETATM    6  O4  NAG D1381      -8.097 -13.238 -55.907  1.00 63.15    -0.218 OA
HETATM    7  C5  NAG D1381      -9.358 -14.034 -53.980  1.00 65.83     0.181 C 
HETATM    8  O5  NAG D1381      -8.936 -13.579 -52.676  1.00 71.52    -0.349 OA
ENDROOT
BRANCH   2   9
HETATM    9  N2  NAG D1381      -5.449 -14.424 -52.247  1.00 64.46    -0.235 NA
HETATM   10  C7  NAG D1381      -5.266 -14.933 -51.011  1.00 63.69     0.252 C 
HETATM   11  O7  NAG D1381      -6.186 -15.453 -50.365  1.00 53.47    -0.271 OA
HETATM   12  C8  NAG D1381      -3.867 -14.856 -50.459  1.00 60.84     0.100 C 
ENDBRANCH   2   9
BRANCH   7  13
HETATM   13  C6  NAG D1381     -10.310 -15.219 -53.761  1.00 63.54     0.214 C 
HETATM   14  O6  NAG D1381     -10.823 -15.214 -52.416  1.00 57.65    -0.218 OA
ENDBRANCH   7  13
TORSDOF 2
ENDMDL
MODEL 2
REMARK VINA RESULT:      -4.8      3.576      5.887
REMARK  2 active torsions:
REMARK  status: ('A' for Active; 'I' for Inactive)
REMARK    1  A    between atoms: C2_2  and  N2_3 
REMARK       I    between atoms: N2_3  and  C7_12 
REMARK    2  A    between atoms: C5_8  and  C6_10 
ROOT
HETATM    1  C1  NAG D1381      -7.996 -16.757 -57.662  1.00 68.49     0.169 C 
HETATM    2  C2  NAG D1381      -9.076 -16.913 -56.593  1.00 69.49     0.169 C 
HETATM    3  C3  NAG D1381      -9.376 -15.528 -56.024  1.00 64.46     0.210 C 
HETATM    4  O3  NAG D1381     -10.007 -15.708 -54.752  1.00 65.48    -0.218 OA
HETATM    5  C4  NAG D1381      -8.109 -14.669 -55.838  1.00 65.82     0.214 C 
HETATM    6  O4  NAG D1381      -8.166 -13.519 -56.711  1.00 63.15    -0.218 OA
HETATM    7  C5  NAG D1381      -6.748 -15.392 -56.064  1.00 65.83     0.181 C 
HETATM    8  O5  NAG D1381      -6.797 -16.578 -56.886  1.00 71.52    -0.349 OA
ENDROOT
BRANCH   2   9
HETATM    9  N2  NAG D1381     -10.229 -17.694 -57.072  1.00 64.46    -0.235 NA
HETATM   10  C7  NAG D1381     -10.638 -18.795 -56.407  1.00 63.69     0.252 C 
HETATM   11  O7  NAG D1381     -10.098 -19.176 -55.360  1.00 53.47    -0.271 OA
HETATM   12  C8  NAG D1381     -11.810 -19.532 -56.999  1.00 60.84     0.100 C 
ENDBRANCH   2   9
BRANCH   7  13
HETATM   13  C6  NAG D1381      -6.044 -15.777 -54.754  1.00 63.54     0.214 C 
HETATM   14  O6  NAG D1381      -6.370 -14.841 -53.711  1.00 57.65    -0.218 OA
ENDBRANCH   7  13
TORSDOF 2
ENDMDL
MODEL 3
REMARK VINA RESULT:      -4.8      3.054      4.578
REMARK  2 active torsions:
REMARK  status: ('A' for Active; 'I' for Inactive)
REMARK    1  A    between atoms: C2_2  and  N2_3 
REMARK       I    between atoms: N2_3  and  C7_12 
REMARK    2  A    between atoms: C5_8  and  C6_10 
ROOT
HETATM    1  C1  NAG D1381      -6.652 -11.444 -51.887  1.00 68.49     0.169 C 
HETATM    2  C2  NAG D1381      -7.550 -11.939 -50.754  1.00 69.49     0.169 C 
HETATM    3  C3  NAG D1381      -7.066 -13.328 -50.344  1.00 64.46     0.210 C 
HETATM    4  O3  NAG D1381      -8.137 -13.974 -49.649  1.00 65.48    -0.218 OA
HETATM    5  C4  NAG D1381      -6.654 -14.198 -51.549  1.00 65.82     0.214 C 
HETATM    6  O4  NAG D1381      -5.239 -14.487 -51.481  1.00 63.15    -0.218 OA
HETATM    7  C5  NAG D1381      -6.971 -13.618 -52.959  1.00 65.83     0.181 C 
HETATM    8  O5  NAG D1381      -7.130 -12.185 -53.025  1.00 71.52    -0.349 OA
ENDROOT
BRANCH   2   9
HETATM    9  N2  NAG D1381      -7.692 -10.944 -49.678  1.00 64.46    -0.235 NA
HETATM   10  C7  NAG D1381      -8.218  -9.728 -49.930  1.00 63.69     0.252 C 
HETATM   11  O7  NAG D1381      -8.635  -9.404 -51.050  1.00 53.47    -0.271 OA
HETATM   12  C8  NAG D1381      -8.292  -8.780 -48.762  1.00 60.84     0.100 C 
ENDBRANCH   2   9
BRANCH   7  13
HETATM   13  C6  NAG D1381      -8.218 -14.243 -53.602  1.00 63.54     0.214 C 
HETATM   14  O6  NAG D1381      -9.400 -13.895 -52.859  1.00 57.65    -0.218 OA
ENDBRANCH   7  13
TORSDOF 2
ENDMDL
MODEL 4
REMARK VINA RESULT:      -4.8      2.104      3.774
REMARK  2 active torsions:
REMARK  status: ('A' for Active; 'I' for Inactive)
REMARK    1  A    between atoms: C2_2  and  N2_3 
REMARK       I    between atoms: N2_3  and  C7_12 
REMARK    2  A    between atoms: C5_8  and  C6_10 
ROOT
HETATM    1  C1  NAG D1381      -6.538 -15.569 -55.398  1.00 68.49     0.169 C 
HETATM    2  C2  NAG D1381      -7.408 -14.662 -54.528  1.00 69.49     0.169 C 
HETATM    3  C3  NAG D1381      -8.844 -15.172 -54.607  1.00 64.46     0.210 C 
HETATM    4  O3  NAG D1381      -9.708 -14.105 -54.205  1.00 65.48    -0.218 OA
HETATM    5  C4  NAG D1381      -9.241 -15.631 -56.025  1.00 65.82     0.214 C 
HETATM    6  O4  NAG D1381      -9.511 -17.051 -56.022  1.00 63.15    -0.218 OA
HETATM    7  C5  NAG D1381      -8.217 -15.327 -57.159  1.00 65.83     0.181 C 
HETATM    8  O5  NAG D1381      -6.851 -15.133 -56.733  1.00 71.52    -0.349 OA
ENDROOT
BRANCH   2   9
HETATM    9  N2  NAG D1381      -6.846 -14.473 -53.180  1.00 64.46    -0.235 NA
HETATM   10  C7  NAG D1381      -6.727 -13.237 -52.651  1.00 63.69     0.252 C 
HETATM   11  O7  NAG D1381      -7.110 -12.221 -53.246  1.00 53.47    -0.271 OA
HETATM   12  C8  NAG D1381      -6.116 -13.159 -51.277  1.00 60.84     0.100 C 
ENDBRANCH   2   9
BRANCH   7  13
HETATM   13  C6  NAG D1381      -8.604 -14.110 -58.011  1.00 63.54     0.214 C 
HETATM   14  O6  NAG D1381      -7.590 -13.092 -57.932  1.00 57.65    -0.218 OA
ENDBRANCH   7  13
TORSDOF 2
ENDMDL
MODEL 5
REMARK VINA RESULT:      -4.8      2.065      5.220
REMARK  2 active torsions:
REMARK  status: ('A' for Active; 'I' for Inactive)
REMARK    1  A    between atoms: C2_2  and  N2_3 
REMARK       I    between atoms: N2_3  and  C7_12 
REMARK    2  A    between atoms: C5_8  and  C6_10 
ROOT
HETATM    1  C1  NAG D1381      -5.431 -15.513 -51.686  1.00 68.49     0.169 C 
HETATM    2  C2  NAG D1381      -6.321 -14.291 -51.911  1.00 69.49     0.169 C 
HETATM    3  C3  NAG D1381      -5.694 -13.111 -51.172  1.00 64.46     0.210 C 
HETATM    4  O3  NAG D1381      -6.714 -12.125 -50.982  1.00 65.48    -0.218 OA
HETATM    5  C4  NAG D1381      -5.115 -13.504 -49.797  1.00 65.82     0.214 C 
HETATM    6  O4  NAG D1381      -3.681 -13.321 -49.801  1.00 63.15    -0.218 OA
HETATM    7  C5  NAG D1381      -5.426 -14.950 -49.307  1.00 65.83     0.181 C 
HETATM    8  O5  NAG D1381      -5.754 -15.904 -50.339  1.00 71.52    -0.349 OA
ENDROOT
BRANCH   2   9
HETATM    9  N2  NAG D1381      -6.640 -14.085 -53.334  1.00 64.46    -0.235 NA
HETATM   10  C7  NAG D1381      -7.922 -14.011 -53.747  1.00 63.69     0.252 C 
HETATM   11  O7  NAG D1381      -8.878 -14.073 -52.962  1.00 53.47    -0.271 OA
HETATM   12  C8  NAG D1381      -8.134 -13.825 -55.227  1.00 60.84     0.100 C 
ENDBRANCH   2   9
BRANCH   7  13
HETATM   13  C6  NAG D1381      -6.550 -15.004 -48.263  1.00 63.54     0.214 C 
HETATM   14  O6  NAG D1381      -6.005 -15.088 -46.934  1.00 57.65    -0.218 OA
ENDBRANCH   7  13
TORSDOF 2
ENDMDL
MODEL 6
REMARK VINA RESULT:      -4.6      2.303      2.709
REMARK  2 active torsions:
REMARK  status: ('A' for Active; 'I' for Inactive)
REMARK    1  A    between atoms: C2_2  and  N2_3 
REMARK       I    between atoms: N2_3  and  C7_12 
REMARK    2  A    between atoms: C5_8  and  C6_10 
ROOT
HETATM    1  C1  NAG D1381      -9.488 -14.473 -54.485  1.00 68.49     0.169 C 
HETATM    2  C2  NAG D1381      -7.975 -14.676 -54.428  1.00 69.49     0.169 C 
HETATM    3  C3  NAG D1381      -7.439 -14.623 -55.857  1.00 64.46     0.210 C 
HETATM    4  O3  NAG D1381      -6.157 -15.258 -55.865  1.00 65.48    -0.218 OA
HETATM    5  C4  NAG D1381      -8.359 -15.338 -56.867  1.00 65.82     0.214 C 
HETATM    6  O4  NAG D1381      -8.889 -14.379 -57.809  1.00 63.15    -0.218 OA
HETATM    7  C5  NAG D1381      -9.547 -16.147 -56.266  1.00 65.83     0.181 C 
HETATM    8  O5  NAG D1381      -9.967 -15.751 -54.943  1.00 71.52    -0.349 OA
ENDROOT
BRANCH   2   9
HETATM    9  N2  NAG D1381      -7.328 -13.788 -53.447  1.00 64.46    -0.235 NA
HETATM   10  C7  NAG D1381      -6.404 -14.268 -52.589  1.00 63.69     0.252 C 
HETATM   11  O7  NAG D1381      -6.032 -15.449 -52.606  1.00 53.47    -0.271 OA
HETATM   12  C8  NAG D1381      -5.826 -13.278 -51.612  1.00 60.84     0.100 C 
ENDBRANCH   2   9
BRANCH   7  13
HETATM   13  C6  NAG D1381      -9.288 -17.660 -56.227  1.00 63.54     0.214 C 
HETATM   14  O6  NAG D1381     -10.243 -18.315 -55.373  1.00 57.65    -0.218 OA
ENDBRANCH   7  13
TORSDOF 2
ENDMDL
MODEL 7
REMARK VINA RESULT:      -4.6      4.040      6.075
REMARK  2 active torsions:
REMARK  status: ('A' for Active; 'I' for Inactive)
REMARK    1  A    between atoms: C2_2  and  N2_3 
REMARK       I    between atoms: N2_3  and  C7_12 
REMARK    2  A    between atoms: C5_8  and  C6_10 
ROOT
HETATM    1  C1  NAG D1381      -9.688 -15.274 -54.837  1.00 68.49     0.169 C 
HETATM    2  C2  NAG D1381     -10.080 -16.443 -55.740  1.00 69.49     0.169 C 
HETATM    3  C3  NAG D1381      -8.807 -17.203 -56.105  1.00 64.46     0.210 C 
HETATM    4  O3  NAG D1381      -9.081 -17.974 -57.278  1.00 65.48    -0.218 OA
HETATM    5  C4  NAG D1381      -7.612 -16.269 -56.388  1.00 65.82     0.214 C 
HETATM    6  O4  NAG D1381      -6.581 -16.481 -55.397  1.00 63.15    -0.218 OA
HETATM    7  C5  NAG D1381      -7.929 -14.745 -56.450  1.00 65.83     0.181 C 
HETATM    8  O5  NAG D1381      -9.127 -14.325 -55.762  1.00 71.52    -0.349 OA
ENDROOT
BRANCH   2   9
HETATM    9  N2  NAG D1381     -11.185 -17.238 -55.178  1.00 64.46    -0.235 NA
HETATM   10  C7  NAG D1381     -12.259 -17.551 -55.932  1.00 63.69     0.252 C 
HETATM   11  O7  NAG D1381     -12.352 -17.226 -57.123  1.00 53.47    -0.271 OA
HETATM   12  C8  NAG D1381     -13.342 -18.345 -55.249  1.00 60.84     0.100 C 
ENDBRANCH   2   9
BRANCH   7  13
HETATM   13  C6  NAG D1381      -8.017 -14.206 -57.886  1.00 63.54     0.214 C 
HETATM   14  O6  NAG D1381      -7.613 -12.826 -57.934  1.00 57.65    -0.218 OA
ENDBRANCH   7  13
TORSDOF 2
ENDMDL
MODEL 8
REMARK VINA RESULT:      -4.5      2.273      4.445
REMARK  2 active torsions:
REMARK  status: ('A' for Active; 'I' for Inactive)
REMARK    1  A    between atoms: C2_2  and  N2_3 
REMARK       I    between atoms: N2_3  and  C7_12 
REMARK    2  A    between atoms: C5_8  and  C6_10 
ROOT
HETATM    1  C1  NAG D1381      -7.911 -14.087 -52.081  1.00 68.49     0.169 C 
HETATM    2  C2  NAG D1381      -6.385 -14.068 -51.999  1.00 69.49     0.169 C 
HETATM    3  C3  NAG D1381      -5.995 -13.907 -50.532  1.00 64.46     0.210 C 
HETATM    4  O3  NAG D1381      -4.647 -13.428 -50.489  1.00 65.48    -0.218 OA
HETATM    5  C4  NAG D1381      -6.903 -12.916 -49.776  1.00 65.82     0.214 C 
HETATM    6  O4  NAG D1381      -7.639 -13.614 -48.746  1.00 63.15    -0.218 OA
HETATM    7  C5  NAG D1381      -7.915 -12.110 -50.644  1.00 65.83     0.181 C 
HETATM    8  O5  NAG D1381      -8.260 -12.701 -51.915  1.00 71.52    -0.349 OA
ENDROOT
BRANCH   2   9
HETATM    9  N2  NAG D1381      -5.771 -15.192 -52.726  1.00 64.46    -0.235 NA
HETATM   10  C7  NAG D1381      -6.025 -15.383 -54.038  1.00 63.69     0.252 C 
HETATM   11  O7  NAG D1381      -6.743 -14.617 -54.694  1.00 53.47    -0.271 OA
HETATM   12  C8  NAG D1381      -5.365 -16.577 -54.676  1.00 60.84     0.100 C 
ENDBRANCH   2   9
BRANCH   7  13
HETATM   13  C6  NAG D1381      -7.460 -10.670 -50.921  1.00 63.54     0.214 C 
HETATM   14  O6  NAG D1381      -8.482  -9.733 -50.537  1.00 57.65    -0.218 OA
ENDBRANCH   7  13
TORSDOF 2
ENDMDL
MODEL 9
REMARK VINA RESULT:      -4.4      2.926      4.156
REMARK  2 active torsions:
REMARK  status: ('A' for Active; 'I' for Inactive)
REMARK    1  A    between atoms: C2_2  and  N2_3 
REMARK       I    between atoms: N2_3  and  C7_12 
REMARK    2  A    between atoms: C5_8  and  C6_10 
ROOT
HETATM    1  C1  NAG D1381      -5.733 -13.779 -51.986  1.00 68.49     0.169 C 
HETATM    2  C2  NAG D1381      -5.587 -13.884 -50.468  1.00 69.49     0.169 C 
HETATM    3  C3  NAG D1381      -6.979 -14.082 -49.875  1.00 64.46     0.210 C 
HETATM    4  O3  NAG D1381      -6.919 -13.719 -48.492  1.00 65.48    -0.218 OA
HETATM    5  C4  NAG D1381      -8.055 -13.224 -50.572  1.00 65.82     0.214 C 
HETATM    6  O4  NAG D1381      -9.013 -14.082 -51.231  1.00 63.15    -0.218 OA
HETATM    7  C5  NAG D1381      -7.540 -12.177 -51.603  1.00 65.83     0.181 C 
HETATM    8  O5  NAG D1381      -6.239 -12.444 -52.170  1.00 71.52    -0.349 OA
ENDROOT
BRANCH   2   9
HETATM    9  N2  NAG D1381      -4.555 -14.857 -50.072  1.00 64.46    -0.235 NA
HETATM   10  C7  NAG D1381      -3.365 -14.439 -49.591  1.00 63.69     0.252 C 
HETATM   11  O7  NAG D1381      -3.098 -13.242 -49.427  1.00 53.47    -0.271 OA
HETATM   12  C8  NAG D1381      -2.374 -15.518 -49.240  1.00 60.84     0.100 C 
ENDBRANCH   2   9
BRANCH   7  13
HETATM   13  C6  NAG D1381      -7.508 -10.747 -51.046  1.00 63.54     0.214 C 
HETATM   14  O6  NAG D1381      -8.120 -10.696 -49.745  1.00 57.65    -0.218 OA
ENDBRANCH   7  13
TORSDOF 2
ENDMDL
