MODEL 1
REMARK VINA RESULT:      -9.0      0.000      0.000
REMARK  6 active torsions:
REMARK  status: ('A' for Active; 'I' for Inactive)
REMARK    1  A    between atoms: CAN_11  and  CAZ_20 
REMARK    2  A    between atoms: CAN_11  and  NAP_21 
REMARK    3  A    between atoms: CAO_12  and  CAV_16 
REMARK    4  A    between atoms: CAO_12  and  CBA_27 
REMARK    5  A    between atoms: CAW_17  and  CAZ_20 
REMARK    6  A    between atoms: NAP_21  and  CBA_27 
ROOT
HETATM    1  CAA AAA A1401      -3.716 -13.748 -48.384  1.00 49.25     0.031 C 
HETATM    2  CAG AAA A1401      -3.288 -16.142 -51.260  1.00 45.11    -0.000 A 
HETATM    3  CAH AAA A1401      -4.597 -16.325 -51.693  1.00 44.49    -0.000 A 
HETATM    4  CAI AAA A1401      -3.013 -15.303 -50.188  1.00 42.43    -0.005 A 
HETATM    5  CAJ AAA A1401      -5.630 -15.661 -51.055  1.00 43.77    -0.004 A 
HETATM    6  CAT AAA A1401      -4.051 -14.646 -49.545  1.00 45.88    -0.026 A 
HETATM    7  CAV AAA A1401      -5.362 -14.834 -49.969  1.00 45.37    -0.024 A 
ENDROOT
BRANCH   7   8
HETATM    8  CAO AAA A1401      -6.519 -14.123 -49.300  1.00 48.06     0.048 C 
BRANCH   8   9
HETATM    9  CBA AAA A1401      -7.139 -12.999 -50.129  1.00 48.78     0.084 C 
HETATM   10  CAC AAA A1401      -7.931 -11.998 -49.297  1.00 41.07     0.024 C 
HETATM   11  CAB AAA A1401      -6.056 -12.275 -50.920  1.00 52.25     0.024 C 
BRANCH   9  12
HETATM   12  NAP AAA A1401      -8.029 -13.584 -51.109  1.00 52.91    -0.296 NA
BRANCH  12  13
HETATM   13  CAN AAA A1401      -7.942 -13.113 -52.475  1.00 52.99     0.157 C 
BRANCH  13  14
HETATM   14  CAZ AAA A1401      -8.934 -13.889 -53.323  1.00 56.84     0.200 C 
HETATM   15  OAF AAA A1401      -9.772 -14.641 -52.430  1.00 58.88    -0.216 OA
BRANCH  14  16
HETATM   16  CAW AAA A1401      -8.195 -14.772 -54.267  1.00 54.92     0.034 A 
HETATM   17  CAL AAA A1401      -6.806 -14.728 -54.289  1.00 50.03     0.002 A 
HETATM   18  CAK AAA A1401      -6.089 -15.548 -55.156  1.00 47.88     0.029 A 
HETATM   19  CAU AAA A1401      -6.760 -16.420 -56.006  1.00 48.18     0.150 A 
HETATM   20  CAX AAA A1401      -8.138 -16.473 -55.983  1.00 53.90     0.132 A 
HETATM   21  OAE AAA A1401      -6.068 -17.227 -56.860  1.00 43.87    -0.189 OA
HETATM   22  NAQ AAA A1401      -8.791 -17.315 -56.820  1.00 52.35    -0.206 NA
HETATM   23  CAY AAA A1401      -8.854 -15.659 -55.122  1.00 57.74     0.113 A 
HETATM   24  CAS AAA A1401     -10.005 -17.777 -56.536  1.00 54.92     0.287 C 
HETATM   25  OAD AAA A1401     -10.493 -18.728 -57.126  1.00 55.84    -0.267 OA
HETATM   26  CAM AAA A1401     -10.771 -17.070 -55.435  1.00 59.97     0.238 C 
HETATM   27  OAR AAA A1401     -10.218 -15.776 -55.173  1.00 61.06    -0.319 OA
ENDBRANCH  14  16
ENDBRANCH  13  14
ENDBRANCH  12  13
ENDBRANCH   9  12
ENDBRANCH   8   9
ENDBRANCH   7   8
TORSDOF 6
ENDMDL
MODEL 2
REMARK VINA RESULT:      -8.9      0.680      1.489
REMARK  6 active torsions:
REMARK  status: ('A' for Active; 'I' for Inactive)
REMARK    1  A    between atoms: CAN_11  and  CAZ_20 
REMARK    2  A    between atoms: CAN_11  and  NAP_21 
REMARK    3  A    between atoms: CAO_12  and  CAV_16 
REMARK    4  A    between atoms: CAO_12  and  CBA_27 
REMARK    5  A    between atoms: CAW_17  and  CAZ_20 
REMARK    6  A    between atoms: NAP_21  and  CBA_27 
ROOT
HETATM    1  CAA AAA A1401      -4.755 -16.015 -52.075  1.00 49.25     0.031 C 
HETATM    2  CAG AAA A1401      -2.622 -14.917 -49.172  1.00 45.11    -0.000 A 
HETATM    3  CAH AAA A1401      -3.554 -14.338 -48.319  1.00 44.49    -0.000 A 
HETATM    4  CAI AAA A1401      -3.021 -15.461 -50.386  1.00 42.43    -0.005 A 
HETATM    5  CAJ AAA A1401      -4.889 -14.308 -48.681  1.00 43.77    -0.004 A 
HETATM    6  CAT AAA A1401      -4.359 -15.421 -50.750  1.00 45.88    -0.026 A 
HETATM    7  CAV AAA A1401      -5.293 -14.834 -49.904  1.00 45.37    -0.024 A 
ENDROOT
BRANCH   7   8
HETATM    8  CAO AAA A1401      -6.763 -14.785 -50.262  1.00 48.06     0.048 C 
BRANCH   8   9
HETATM    9  CBA AAA A1401      -7.280 -13.396 -50.637  1.00 48.78     0.084 C 
HETATM   10  CAC AAA A1401      -7.619 -12.530 -49.430  1.00 41.07     0.024 C 
HETATM   11  CAB AAA A1401      -6.263 -12.682 -51.519  1.00 52.25     0.024 C 
BRANCH   9  12
HETATM   12  NAP AAA A1401      -8.473 -13.549 -51.441  1.00 52.91    -0.296 NA
BRANCH  12  13
HETATM   13  CAN AAA A1401      -8.407 -13.171 -52.836  1.00 52.99     0.157 C 
BRANCH  13  14
HETATM   14  CAZ AAA A1401      -9.343 -14.066 -53.629  1.00 56.84     0.200 C 
HETATM   15  OAF AAA A1401     -10.105 -14.839 -52.687  1.00 58.88    -0.216 OA
BRANCH  14  16
HETATM   16  CAW AAA A1401      -8.546 -14.931 -54.542  1.00 54.92     0.034 A 
HETATM   17  CAL AAA A1401      -7.180 -14.706 -54.668  1.00 50.03     0.002 A 
HETATM   18  CAK AAA A1401      -6.410 -15.505 -55.508  1.00 47.88     0.029 A 
HETATM   19  CAU AAA A1401      -7.003 -16.538 -56.227  1.00 48.18     0.150 A 
HETATM   20  CAX AAA A1401      -8.357 -16.770 -56.099  1.00 53.90     0.132 A 
HETATM   21  OAE AAA A1401      -6.258 -17.326 -57.053  1.00 43.87    -0.189 OA
HETATM   22  NAQ AAA A1401      -8.935 -17.769 -56.808  1.00 52.35    -0.206 NA
HETATM   23  CAY AAA A1401      -9.125 -15.978 -55.264  1.00 57.74     0.113 A 
HETATM   24  CAS AAA A1401     -10.054 -18.358 -56.397  1.00 54.92     0.287 C 
HETATM   25  OAD AAA A1401     -10.440 -19.418 -56.863  1.00 55.84    -0.267 OA
HETATM   26  CAM AAA A1401     -10.844 -17.654 -55.310  1.00 59.97     0.238 C 
HETATM   27  OAR AAA A1401     -10.461 -16.279 -55.206  1.00 61.06    -0.319 OA
ENDBRANCH  14  16
ENDBRANCH  13  14
ENDBRANCH  12  13
ENDBRANCH   9  12
ENDBRANCH   8   9
ENDBRANCH   7   8
TORSDOF 6
ENDMDL
MODEL 3
REMARK VINA RESULT:      -8.5      1.442      2.080
REMARK  6 active torsions:
REMARK  status: ('A' for Active; 'I' for Inactive)
REMARK    1  A    between atoms: CAN_11  and  CAZ_20 
REMARK    2  A    between atoms: CAN_11  and  NAP_21 
REMARK    3  A    between atoms: CAO_12  and  CAV_16 
REMARK    4  A    between atoms: CAO_12  and  CBA_27 
REMARK    5  A    between atoms: CAW_17  and  CAZ_20 
REMARK    6  A    between atoms: NAP_21  and  CBA_27 
ROOT
HETATM    1  CAA AAA A1401      -3.692 -16.100 -51.572  1.00 49.25     0.031 C 
HETATM    2  CAG AAA A1401      -2.285 -14.617 -48.409  1.00 45.11    -0.000 A 
HETATM    3  CAH AAA A1401      -3.416 -14.082 -47.801  1.00 44.49    -0.000 A 
HETATM    4  CAI AAA A1401      -2.386 -15.272 -49.629  1.00 42.43    -0.005 A 
HETATM    5  CAJ AAA A1401      -4.649 -14.209 -48.415  1.00 43.77    -0.004 A 
HETATM    6  CAT AAA A1401      -3.621 -15.389 -50.247  1.00 45.88    -0.026 A 
HETATM    7  CAV AAA A1401      -4.753 -14.847 -49.648  1.00 45.37    -0.024 A 
ENDROOT
BRANCH   7   8
HETATM    8  CAO AAA A1401      -6.120 -14.967 -50.286  1.00 48.06     0.048 C 
BRANCH   8   9
HETATM    9  CBA AAA A1401      -6.787 -13.632 -50.617  1.00 48.78     0.084 C 
HETATM   10  CAC AAA A1401      -7.610 -13.064 -49.468  1.00 41.07     0.024 C 
HETATM   11  CAB AAA A1401      -5.735 -12.619 -51.053  1.00 52.25     0.024 C 
BRANCH   9  12
HETATM   12  NAP AAA A1401      -7.660 -13.821 -51.756  1.00 52.91    -0.296 NA
BRANCH  12  13
HETATM   13  CAN AAA A1401      -7.225 -13.312 -53.039  1.00 52.99     0.157 C 
BRANCH  13  14
HETATM   14  CAZ AAA A1401      -8.110 -13.902 -54.123  1.00 56.84     0.200 C 
HETATM   15  OAF AAA A1401      -9.247 -14.497 -53.477  1.00 58.88    -0.216 OA
BRANCH  14  16
HETATM   16  CAW AAA A1401      -7.332 -14.899 -54.909  1.00 54.92     0.034 A 
HETATM   17  CAL AAA A1401      -6.196 -15.470 -54.346  1.00 50.03     0.002 A 
HETATM   18  CAK AAA A1401      -5.456 -16.410 -55.055  1.00 47.88     0.029 A 
HETATM   19  CAU AAA A1401      -5.848 -16.788 -56.335  1.00 48.18     0.150 A 
HETATM   20  CAX AAA A1401      -6.978 -16.230 -56.896  1.00 53.90     0.132 A 
HETATM   21  OAE AAA A1401      -5.129 -17.707 -57.039  1.00 43.87    -0.189 OA
HETATM   22  NAQ AAA A1401      -7.353 -16.589 -58.147  1.00 52.35    -0.206 NA
HETATM   23  CAY AAA A1401      -7.718 -15.295 -56.193  1.00 57.74     0.113 A 
HETATM   24  CAS AAA A1401      -8.618 -16.500 -58.548  1.00 54.92     0.287 C 
HETATM   25  OAD AAA A1401      -9.021 -17.059 -59.555  1.00 55.84    -0.267 OA
HETATM   26  CAM AAA A1401      -9.554 -15.666 -57.695  1.00 59.97     0.238 C 
HETATM   27  OAR AAA A1401      -8.820 -14.791 -56.831  1.00 61.06    -0.319 OA
ENDBRANCH  14  16
ENDBRANCH  13  14
ENDBRANCH  12  13
ENDBRANCH   9  12
ENDBRANCH   8   9
ENDBRANCH   7   8
TORSDOF 6
ENDMDL
MODEL 4
REMARK VINA RESULT:      -8.3      1.525      2.832
REMARK  6 active torsions:
REMARK  status: ('A' for Active; 'I' for Inactive)
REMARK    1  A    between atoms: CAN_11  and  CAZ_20 
REMARK    2  A    between atoms: CAN_11  and  NAP_21 
REMARK    3  A    between atoms: CAO_12  and  CAV_16 
REMARK    4  A    between atoms: CAO_12  and  CBA_27 
REMARK    5  A    between atoms: CAW_17  and  CAZ_20 
REMARK    6  A    between atoms: NAP_21  and  CBA_27 
ROOT
HETATM    1  CAA AAA A1401      -4.919 -16.139 -52.372  1.00 49.25     0.031 C 
HETATM    2  CAG AAA A1401      -2.886 -14.892 -49.456  1.00 45.11    -0.000 A 
HETATM    3  CAH AAA A1401      -3.837 -14.223 -48.693  1.00 44.49    -0.000 A 
HETATM    4  CAI AAA A1401      -3.247 -15.512 -50.645  1.00 42.43    -0.005 A 
HETATM    5  CAJ AAA A1401      -5.152 -14.181 -49.121  1.00 43.77    -0.004 A 
HETATM    6  CAT AAA A1401      -4.564 -15.460 -51.075  1.00 45.88    -0.026 A 
HETATM    7  CAV AAA A1401      -5.517 -14.783 -50.321  1.00 45.37    -0.024 A 
ENDROOT
BRANCH   7   8
HETATM    8  CAO AAA A1401      -6.966 -14.717 -50.752  1.00 48.06     0.048 C 
BRANCH   8   9
HETATM    9  CBA AAA A1401      -7.417 -13.346 -51.254  1.00 48.78     0.084 C 
HETATM   10  CAC AAA A1401      -7.589 -12.320 -50.141  1.00 41.07     0.024 C 
HETATM   11  CAB AAA A1401      -6.436 -12.823 -52.296  1.00 52.25     0.024 C 
BRANCH   9  12
HETATM   12  NAP AAA A1401      -8.685 -13.497 -51.936  1.00 52.91    -0.296 NA
BRANCH  12  13
HETATM   13  CAN AAA A1401      -8.718 -14.300 -53.140  1.00 52.99     0.157 C 
BRANCH  13  14
HETATM   14  CAZ AAA A1401     -10.167 -14.583 -53.498  1.00 56.84     0.200 C 
HETATM   15  OAF AAA A1401     -10.867 -14.869 -52.276  1.00 58.88    -0.216 OA
BRANCH  14  16
HETATM   16  CAW AAA A1401     -10.228 -15.722 -54.454  1.00 54.92     0.034 A 
HETATM   17  CAL AAA A1401     -11.022 -16.822 -54.149  1.00 50.03     0.002 A 
HETATM   18  CAK AAA A1401     -11.103 -17.897 -55.029  1.00 47.88     0.029 A 
HETATM   19  CAU AAA A1401     -10.390 -17.878 -56.223  1.00 48.18     0.150 A 
HETATM   20  CAX AAA A1401      -9.606 -16.787 -56.533  1.00 53.90     0.132 A 
HETATM   21  OAE AAA A1401     -10.461 -18.927 -57.090  1.00 43.87    -0.189 OA
HETATM   22  NAQ AAA A1401      -8.902 -16.774 -57.691  1.00 52.35    -0.206 NA
HETATM   23  CAY AAA A1401      -9.523 -15.715 -55.661  1.00 57.74     0.113 A 
HETATM   24  CAS AAA A1401      -8.548 -15.635 -58.278  1.00 54.92     0.287 C 
HETATM   25  OAD AAA A1401      -8.159 -15.594 -59.435  1.00 55.84    -0.267 OA
HETATM   26  CAM AAA A1401      -8.646 -14.371 -57.447  1.00 59.97     0.238 C 
HETATM   27  OAR AAA A1401      -8.716 -14.679 -56.050  1.00 61.06    -0.319 OA
ENDBRANCH  14  16
ENDBRANCH  13  14
ENDBRANCH  12  13
ENDBRANCH   9  12
ENDBRANCH   8   9
ENDBRANCH   7   8
TORSDOF 6
ENDMDL
MODEL 5
REMARK VINA RESULT:      -8.2      2.936      8.144
REMARK  6 active torsions:
REMARK  status: ('A' for Active; 'I' for Inactive)
REMARK    1  A    between atoms: CAN_11  and  CAZ_20 
REMARK    2  A    between atoms: CAN_11  and  NAP_21 
REMARK    3  A    between atoms: CAO_12  and  CAV_16 
REMARK    4  A    between atoms: CAO_12  and  CBA_27 
REMARK    5  A    between atoms: CAW_17  and  CAZ_20 
REMARK    6  A    between atoms: NAP_21  and  CBA_27 
ROOT
HETATM    1  CAA AAA A1401     -14.834 -17.203 -56.007  1.00 49.25     0.031 C 
HETATM    2  CAG AAA A1401     -14.832 -20.967 -56.135  1.00 45.11    -0.000 A 
HETATM    3  CAH AAA A1401     -13.547 -21.250 -56.585  1.00 44.49    -0.000 A 
HETATM    4  CAI AAA A1401     -15.238 -19.653 -55.949  1.00 42.43    -0.005 A 
HETATM    5  CAJ AAA A1401     -12.667 -20.214 -56.842  1.00 43.77    -0.004 A 
HETATM    6  CAT AAA A1401     -14.357 -18.616 -56.216  1.00 45.88    -0.026 A 
HETATM    7  CAV AAA A1401     -13.075 -18.894 -56.675  1.00 45.37    -0.024 A 
ENDROOT
BRANCH   7   8
HETATM    8  CAO AAA A1401     -12.082 -17.789 -56.964  1.00 48.06     0.048 C 
BRANCH   8   9
HETATM    9  CBA AAA A1401     -11.011 -17.600 -55.889  1.00 48.78     0.084 C 
HETATM   10  CAC AAA A1401     -11.540 -17.770 -54.471  1.00 41.07     0.024 C 
HETATM   11  CAB AAA A1401      -9.854 -18.561 -56.131  1.00 52.25     0.024 C 
BRANCH   9  12
HETATM   12  NAP AAA A1401     -10.460 -16.267 -56.015  1.00 52.91    -0.296 NA
BRANCH  12  13
HETATM   13  CAN AAA A1401      -9.529 -16.015 -57.093  1.00 52.99     0.157 C 
BRANCH  13  14
HETATM   14  CAZ AAA A1401      -8.625 -14.860 -56.698  1.00 56.84     0.200 C 
HETATM   15  OAF AAA A1401      -8.228 -14.189 -57.905  1.00 58.88    -0.216 OA
BRANCH  14  16
HETATM   16  CAW AAA A1401      -7.454 -15.384 -55.942  1.00 54.92     0.034 A 
HETATM   17  CAL AAA A1401      -6.636 -16.338 -56.535  1.00 50.03     0.002 A 
HETATM   18  CAK AAA A1401      -5.530 -16.838 -55.854  1.00 47.88     0.029 A 
HETATM   19  CAU AAA A1401      -5.235 -16.385 -54.573  1.00 48.18     0.150 A 
HETATM   20  CAX AAA A1401      -6.040 -15.432 -53.982  1.00 53.90     0.132 A 
HETATM   21  OAE AAA A1401      -4.156 -16.869 -53.896  1.00 43.87    -0.189 OA
HETATM   22  NAQ AAA A1401      -5.758 -14.999 -52.730  1.00 52.35    -0.206 NA
HETATM   23  CAY AAA A1401      -7.140 -14.932 -54.658  1.00 57.74     0.113 A 
HETATM   24  CAS AAA A1401      -6.144 -13.800 -52.305  1.00 54.92     0.287 C 
HETATM   25  OAD AAA A1401      -5.680 -13.288 -51.298  1.00 55.84    -0.267 OA
HETATM   26  CAM AAA A1401      -7.196 -13.082 -53.127  1.00 59.97     0.238 C 
HETATM   27  OAR AAA A1401      -7.884 -13.995 -53.991  1.00 61.06    -0.319 OA
ENDBRANCH  14  16
ENDBRANCH  13  14
ENDBRANCH  12  13
ENDBRANCH   9  12
ENDBRANCH   8   9
ENDBRANCH   7   8
TORSDOF 6
ENDMDL
MODEL 6
REMARK VINA RESULT:      -8.1      1.965      4.076
REMARK  6 active torsions:
REMARK  status: ('A' for Active; 'I' for Inactive)
REMARK    1  A    between atoms: CAN_11  and  CAZ_20 
REMARK    2  A    between atoms: CAN_11  and  NAP_21 
REMARK    3  A    between atoms: CAO_12  and  CAV_16 
REMARK    4  A    between atoms: CAO_12  and  CBA_27 
REMARK    5  A    between atoms: CAW_17  and  CAZ_20 
REMARK    6  A    between atoms: NAP_21  and  CBA_27 
ROOT
HETATM    1  CAA AAA A1401      -7.647 -12.019 -50.986  1.00 49.25     0.031 C 
HETATM    2  CAG AAA A1401      -5.497 -14.962 -50.039  1.00 45.11    -0.000 A 
HETATM    3  CAH AAA A1401      -5.214 -15.536 -51.274  1.00 44.49    -0.000 A 
HETATM    4  CAI AAA A1401      -6.284 -13.821 -49.956  1.00 42.43    -0.005 A 
HETATM    5  CAJ AAA A1401      -5.717 -14.961 -52.427  1.00 43.77    -0.004 A 
HETATM    6  CAT AAA A1401      -6.794 -13.253 -51.114  1.00 45.88    -0.026 A 
HETATM    7  CAV AAA A1401      -6.522 -13.828 -52.350  1.00 45.37    -0.024 A 
ENDROOT
BRANCH   7   8
HETATM    8  CAO AAA A1401      -7.049 -13.228 -53.635  1.00 48.06     0.048 C 
BRANCH   8   9
HETATM    9  CBA AAA A1401      -8.001 -14.134 -54.417  1.00 48.78     0.084 C 
HETATM   10  CAC AAA A1401      -9.263 -14.496 -53.645  1.00 41.07     0.024 C 
HETATM   11  CAB AAA A1401      -8.371 -13.481 -55.742  1.00 52.25     0.024 C 
BRANCH   9  12
HETATM   12  NAP AAA A1401      -7.303 -15.357 -54.752  1.00 52.91    -0.296 NA
BRANCH  12  13
HETATM   13  CAN AAA A1401      -6.715 -15.466 -56.070  1.00 52.99     0.157 C 
BRANCH  13  14
HETATM   14  CAZ AAA A1401      -6.937 -16.876 -56.589  1.00 56.84     0.200 C 
HETATM   15  OAF AAA A1401      -5.716 -17.303 -57.214  1.00 58.88    -0.216 OA
BRANCH  14  16
HETATM   16  CAW AAA A1401      -8.080 -16.879 -57.541  1.00 54.92     0.034 A 
HETATM   17  CAL AAA A1401      -7.849 -16.579 -58.879  1.00 50.03     0.002 A 
HETATM   18  CAK AAA A1401      -8.899 -16.583 -59.793  1.00 47.88     0.029 A 
HETATM   19  CAU AAA A1401     -10.190 -16.889 -59.373  1.00 48.18     0.150 A 
HETATM   20  CAX AAA A1401     -10.423 -17.193 -58.048  1.00 53.90     0.132 A 
HETATM   21  OAE AAA A1401     -11.225 -16.894 -60.259  1.00 43.87    -0.189 OA
HETATM   22  NAQ AAA A1401     -11.682 -17.480 -57.637  1.00 52.35    -0.206 NA
HETATM   23  CAY AAA A1401      -9.381 -17.192 -57.137  1.00 57.74     0.113 A 
HETATM   24  CAS AAA A1401     -11.911 -18.231 -56.565  1.00 54.92     0.287 C 
HETATM   25  OAD AAA A1401     -13.006 -18.719 -56.335  1.00 55.84    -0.267 OA
HETATM   26  CAM AAA A1401     -10.744 -18.464 -55.624  1.00 59.97     0.238 C 
HETATM   27  OAR AAA A1401      -9.708 -17.500 -55.843  1.00 61.06    -0.319 OA
ENDBRANCH  14  16
ENDBRANCH  13  14
ENDBRANCH  12  13
ENDBRANCH   9  12
ENDBRANCH   8   9
ENDBRANCH   7   8
TORSDOF 6
ENDMDL
MODEL 7
REMARK VINA RESULT:      -8.1      2.492      7.668
REMARK  6 active torsions:
REMARK  status: ('A' for Active; 'I' for Inactive)
REMARK    1  A    between atoms: CAN_11  and  CAZ_20 
REMARK    2  A    between atoms: CAN_11  and  NAP_21 
REMARK    3  A    between atoms: CAO_12  and  CAV_16 
REMARK    4  A    between atoms: CAO_12  and  CBA_27 
REMARK    5  A    between atoms: CAW_17  and  CAZ_20 
REMARK    6  A    between atoms: NAP_21  and  CBA_27 
ROOT
HETATM    1  CAA AAA A1401     -11.447 -16.944 -54.344  1.00 49.25     0.031 C 
HETATM    2  CAG AAA A1401     -13.887 -19.272 -56.022  1.00 45.11    -0.000 A 
HETATM    3  CAH AAA A1401     -13.093 -19.898 -56.977  1.00 44.49    -0.000 A 
HETATM    4  CAI AAA A1401     -13.343 -18.318 -55.172  1.00 42.43    -0.005 A 
HETATM    5  CAJ AAA A1401     -11.752 -19.572 -57.075  1.00 43.77    -0.004 A 
HETATM    6  CAT AAA A1401     -12.001 -17.986 -55.279  1.00 45.88    -0.026 A 
HETATM    7  CAV AAA A1401     -11.206 -18.603 -56.239  1.00 45.37    -0.024 A 
ENDROOT
BRANCH   7   8
HETATM    8  CAO AAA A1401      -9.735 -18.277 -56.375  1.00 48.06     0.048 C 
BRANCH   8   9
HETATM    9  CBA AAA A1401      -9.416 -17.201 -57.413  1.00 48.78     0.084 C 
HETATM   10  CAC AAA A1401      -8.044 -17.365 -58.053  1.00 41.07     0.024 C 
HETATM   11  CAB AAA A1401     -10.493 -17.182 -58.491  1.00 52.25     0.024 C 
BRANCH   9  12
HETATM   12  NAP AAA A1401      -9.469 -15.906 -56.769  1.00 52.91    -0.296 NA
BRANCH  12  13
HETATM   13  CAN AAA A1401      -8.246 -15.137 -56.684  1.00 52.99     0.157 C 
BRANCH  13  14
HETATM   14  CAZ AAA A1401      -8.316 -14.242 -55.460  1.00 56.84     0.200 C 
HETATM   15  OAF AAA A1401      -8.061 -12.896 -55.893  1.00 58.88    -0.216 OA
BRANCH  14  16
HETATM   16  CAW AAA A1401      -7.319 -14.700 -54.453  1.00 54.92     0.034 A 
HETATM   17  CAL AAA A1401      -6.279 -15.529 -54.858  1.00 50.03     0.002 A 
HETATM   18  CAK AAA A1401      -5.329 -15.965 -53.939  1.00 47.88     0.029 A 
HETATM   19  CAU AAA A1401      -5.414 -15.574 -52.607  1.00 48.18     0.150 A 
HETATM   20  CAX AAA A1401      -6.440 -14.746 -52.202  1.00 53.90     0.132 A 
HETATM   21  OAE AAA A1401      -4.490 -15.997 -51.699  1.00 43.87    -0.189 OA
HETATM   22  NAQ AAA A1401      -6.528 -14.374 -50.903  1.00 52.35    -0.206 NA
HETATM   23  CAY AAA A1401      -7.386 -14.309 -53.113  1.00 57.74     0.113 A 
HETATM   24  CAS AAA A1401      -7.138 -13.250 -50.539  1.00 54.92     0.287 C 
HETATM   25  OAD AAA A1401      -6.999 -12.765 -49.428  1.00 55.84    -0.267 OA
HETATM   26  CAM AAA A1401      -8.025 -12.582 -51.572  1.00 59.97     0.238 C 
HETATM   27  OAR AAA A1401      -8.371 -13.496 -52.619  1.00 61.06    -0.319 OA
ENDBRANCH  14  16
ENDBRANCH  13  14
ENDBRANCH  12  13
ENDBRANCH   9  12
ENDBRANCH   8   9
ENDBRANCH   7   8
TORSDOF 6
ENDMDL
MODEL 8
REMARK VINA RESULT:      -8.1      3.175      7.779
REMARK  6 active torsions:
REMARK  status: ('A' for Active; 'I' for Inactive)
REMARK    1  A    between atoms: CAN_11  and  CAZ_20 
REMARK    2  A    between atoms: CAN_11  and  NAP_21 
REMARK    3  A    between atoms: CAO_12  and  CAV_16 
REMARK    4  A    between atoms: CAO_12  and  CBA_27 
REMARK    5  A    between atoms: CAW_17  and  CAZ_20 
REMARK    6  A    between atoms: NAP_21  and  CBA_27 
ROOT
HETATM    1  CAA AAA A1401     -11.606 -17.091 -54.202  1.00 49.25     0.031 C 
HETATM    2  CAG AAA A1401     -13.903 -19.243 -56.269  1.00 45.11    -0.000 A 
HETATM    3  CAH AAA A1401     -13.020 -19.867 -57.144  1.00 44.49    -0.000 A 
HETATM    4  CAI AAA A1401     -13.435 -18.347 -55.318  1.00 42.43    -0.005 A 
HETATM    5  CAJ AAA A1401     -11.666 -19.597 -57.060  1.00 43.77    -0.004 A 
HETATM    6  CAT AAA A1401     -12.078 -18.071 -55.242  1.00 45.88    -0.026 A 
HETATM    7  CAV AAA A1401     -11.193 -18.686 -56.121  1.00 45.37    -0.024 A 
ENDROOT
BRANCH   7   8
HETATM    8  CAO AAA A1401      -9.704 -18.420 -56.059  1.00 48.06     0.048 C 
BRANCH   8   9
HETATM    9  CBA AAA A1401      -9.236 -17.229 -56.896  1.00 48.78     0.084 C 
HETATM   10  CAC AAA A1401      -8.004 -17.528 -57.739  1.00 41.07     0.024 C 
HETATM   11  CAB AAA A1401     -10.371 -16.742 -57.789  1.00 52.25     0.024 C 
BRANCH   9  12
HETATM   12  NAP AAA A1401      -8.926 -16.131 -56.005  1.00 52.91    -0.296 NA
BRANCH  12  13
HETATM   13  CAN AAA A1401      -7.623 -15.511 -56.118  1.00 52.99     0.157 C 
BRANCH  13  14
HETATM   14  CAZ AAA A1401      -6.932 -15.577 -54.767  1.00 56.84     0.200 C 
HETATM   15  OAF AAA A1401      -6.909 -14.246 -54.227  1.00 58.88    -0.216 OA
BRANCH  14  16
HETATM   16  CAW AAA A1401      -5.562 -16.132 -54.939  1.00 54.92     0.034 A 
HETATM   17  CAL AAA A1401      -5.048 -16.284 -56.221  1.00 50.03     0.002 A 
HETATM   18  CAK AAA A1401      -3.766 -16.792 -56.410  1.00 47.88     0.029 A 
HETATM   19  CAU AAA A1401      -2.988 -17.152 -55.314  1.00 48.18     0.150 A 
HETATM   20  CAX AAA A1401      -3.492 -16.997 -54.039  1.00 53.90     0.132 A 
HETATM   21  OAE AAA A1401      -1.733 -17.653 -55.487  1.00 43.87    -0.189 OA
HETATM   22  NAQ AAA A1401      -2.739 -17.359 -52.972  1.00 52.35    -0.206 NA
HETATM   23  CAY AAA A1401      -4.766 -16.491 -53.847  1.00 57.74     0.113 A 
HETATM   24  CAS AAA A1401      -2.920 -16.812 -51.774  1.00 54.92     0.287 C 
HETATM   25  OAD AAA A1401      -2.096 -16.918 -50.880  1.00 55.84    -0.267 OA
HETATM   26  CAM AAA A1401      -4.207 -16.040 -51.556  1.00 59.97     0.238 C 
HETATM   27  OAR AAA A1401      -5.183 -16.379 -52.548  1.00 61.06    -0.319 OA
ENDBRANCH  14  16
ENDBRANCH  13  14
ENDBRANCH  12  13
ENDBRANCH   9  12
ENDBRANCH   8   9
ENDBRANCH   7   8
TORSDOF 6
ENDMDL
MODEL 9
REMARK VINA RESULT:      -7.8      2.733      5.473
REMARK  6 active torsions:
REMARK  status: ('A' for Active; 'I' for Inactive)
REMARK    1  A    between atoms: CAN_11  and  CAZ_20 
REMARK    2  A    between atoms: CAN_11  and  NAP_21 
REMARK    3  A    between atoms: CAO_12  and  CAV_16 
REMARK    4  A    between atoms: CAO_12  and  CBA_27 
REMARK    5  A    between atoms: CAW_17  and  CAZ_20 
REMARK    6  A    between atoms: NAP_21  and  CBA_27 
ROOT
HETATM    1  CAA AAA A1401      -5.288 -15.737 -52.002  1.00 49.25     0.031 C 
HETATM    2  CAG AAA A1401      -6.247 -12.252 -50.943  1.00 45.11    -0.000 A 
HETATM    3  CAH AAA A1401      -6.990 -11.804 -52.029  1.00 44.49    -0.000 A 
HETATM    4  CAI AAA A1401      -5.702 -13.529 -50.943  1.00 42.43    -0.005 A 
HETATM    5  CAJ AAA A1401      -7.191 -12.639 -53.114  1.00 43.77    -0.004 A 
HETATM    6  CAT AAA A1401      -5.897 -14.361 -52.035  1.00 45.88    -0.026 A 
HETATM    7  CAV AAA A1401      -6.631 -13.913 -53.128  1.00 45.37    -0.024 A 
ENDROOT
BRANCH   7   8
HETATM    8  CAO AAA A1401      -6.877 -14.797 -54.331  1.00 48.06     0.048 C 
BRANCH   8   9
HETATM    9  CBA AAA A1401      -8.299 -14.730 -54.889  1.00 48.78     0.084 C 
HETATM   10  CAC AAA A1401      -9.362 -14.534 -53.816  1.00 41.07     0.024 C 
HETATM   11  CAB AAA A1401      -8.399 -13.621 -55.929  1.00 52.25     0.024 C 
BRANCH   9  12
HETATM   12  NAP AAA A1401      -8.579 -15.965 -55.590  1.00 52.91    -0.296 NA
BRANCH  12  13
HETATM   13  CAN AAA A1401      -9.926 -16.184 -56.071  1.00 52.99     0.157 C 
BRANCH  13  14
HETATM   14  CAZ AAA A1401     -10.337 -17.608 -55.739  1.00 56.84     0.200 C 
HETATM   15  OAF AAA A1401      -9.421 -18.490 -56.408  1.00 58.88    -0.216 OA
BRANCH  14  16
HETATM   16  CAW AAA A1401     -11.743 -17.832 -56.174  1.00 54.92     0.034 A 
HETATM   17  CAL AAA A1401     -12.748 -17.896 -55.215  1.00 50.03     0.002 A 
HETATM   18  CAK AAA A1401     -14.072 -18.095 -55.595  1.00 47.88     0.029 A 
HETATM   19  CAU AAA A1401     -14.400 -18.232 -56.940  1.00 48.18     0.150 A 
HETATM   20  CAX AAA A1401     -13.407 -18.162 -57.896  1.00 53.90     0.132 A 
HETATM   21  OAE AAA A1401     -15.693 -18.429 -57.323  1.00 43.87    -0.189 OA
HETATM   22  NAQ AAA A1401     -13.726 -18.306 -59.204  1.00 52.35    -0.206 NA
HETATM   23  CAY AAA A1401     -12.090 -17.962 -57.522  1.00 57.74     0.113 A 
HETATM   24  CAS AAA A1401     -12.973 -17.782 -60.167  1.00 54.92     0.287 C 
HETATM   25  OAD AAA A1401     -13.372 -17.666 -61.315  1.00 55.84    -0.267 OA
HETATM   26  CAM AAA A1401     -11.579 -17.326 -59.780  1.00 59.97     0.238 C 
HETATM   27  OAR AAA A1401     -11.173 -17.913 -58.538  1.00 61.06    -0.319 OA
ENDBRANCH  14  16
ENDBRANCH  13  14
ENDBRANCH  12  13
ENDBRANCH   9  12
ENDBRANCH   8   9
ENDBRANCH   7   8
TORSDOF 6
ENDMDL
