MODEL 1
REMARK VINA RESULT:      -8.2      0.000      0.000
REMARK  6 active torsions:
REMARK  status: ('A' for Active; 'I' for Inactive)
REMARK    1  A    between atoms: CAB_2  and  NAL_19 
REMARK    2  A    between atoms: CAB_2  and  CAD_4 
REMARK    3  A    between atoms: CAD_4  and  CAE_5 
REMARK    4  A    between atoms: CAM_11  and  CAN_12 
REMARK    5  A    between atoms: CAM_11  and  NAL_19 
REMARK    6  A    between atoms: CAN_12  and  CAP_13 
ROOT
HETATM    1  CAA AAA A1401      -3.165 -14.629 -49.938  1.00 64.07     0.024 C 
HETATM    2  CAB AAA A1401      -4.689 -14.644 -49.866  1.00 67.24     0.084 C 
HETATM    3  CAC AAA A1401      -5.154 -14.436 -48.431  1.00 67.04     0.024 C 
ENDROOT
BRANCH   2   4
HETATM    4  NAL AAA A1401      -5.169 -13.522 -50.647  1.00 64.63    -0.296 NA
BRANCH   4   5
HETATM    5  CAM AAA A1401      -6.485 -12.989 -50.355  1.00 66.87     0.157 C 
BRANCH   5   6
HETATM    6  CAN AAA A1401      -6.976 -12.104 -51.493  1.00 67.52     0.198 C 
HETATM    7  OAO AAA A1401      -7.810 -11.059 -50.979  1.00 65.32    -0.216 OA
BRANCH   6   8
HETATM    8  CAP AAA A1401      -7.705 -12.955 -52.462  1.00 68.74     0.012 A 
HETATM    9  CAW AAA A1401      -8.837 -13.642 -52.043  1.00 71.66     0.028 A 
HETATM   10  CAU AAA A1401      -9.535 -14.450 -52.932  1.00 75.98     0.156 A 
HETATM   11  CAS AAA A1401      -9.102 -14.573 -54.240  1.00 74.39     0.156 A 
HETATM   12  OAV AAA A1401     -10.646 -15.118 -52.515  1.00 78.60    -0.188 OA
HETATM   13  CAR AAA A1401      -7.968 -13.889 -54.663  1.00 75.68     0.029 A 
HETATM   14  OAT AAA A1401      -9.791 -15.365 -55.110  1.00 64.73    -0.188 OA
HETATM   15  CAQ AAA A1401      -7.265 -13.082 -53.774  1.00 71.58     0.001 A 
ENDBRANCH   6   8
ENDBRANCH   5   6
ENDBRANCH   4   5
ENDBRANCH   2   4
BRANCH   2  16
HETATM   16  CAD AAA A1401      -5.267 -15.934 -50.454  1.00 67.67     0.048 C 
BRANCH  16  17
HETATM   17  CAE AAA A1401      -4.716 -16.276 -51.826  1.00 65.89    -0.020 A 
HETATM   18  CAK AAA A1401      -3.483 -16.912 -51.929  1.00 66.37    -0.002 A 
HETATM   19  CAJ AAA A1401      -2.966 -17.240 -53.176  1.00 72.28     0.027 A 
HETATM   20  CAH AAA A1401      -3.685 -16.948 -54.328  1.00 74.86     0.131 A 
HETATM   21  CAG AAA A1401      -4.924 -16.323 -54.230  1.00 69.94     0.027 A 
HETATM   22  OAI AAA A1401      -3.178 -17.271 -55.551  1.00 77.74    -0.190 OA
HETATM   23  CAF AAA A1401      -5.439 -15.995 -52.982  1.00 65.48    -0.002 A 
ENDBRANCH  16  17
ENDBRANCH   2  16
TORSDOF 6
ENDMDL
MODEL 2
REMARK VINA RESULT:      -8.1      2.061      3.663
REMARK  6 active torsions:
REMARK  status: ('A' for Active; 'I' for Inactive)
REMARK    1  A    between atoms: CAB_2  and  NAL_19 
REMARK    2  A    between atoms: CAB_2  and  CAD_4 
REMARK    3  A    between atoms: CAD_4  and  CAE_5 
REMARK    4  A    between atoms: CAM_11  and  CAN_12 
REMARK    5  A    between atoms: CAM_11  and  NAL_19 
REMARK    6  A    between atoms: CAN_12  and  CAP_13 
ROOT
HETATM    1  CAA AAA A1401      -6.253 -12.404 -51.481  1.00 64.07     0.024 C 
HETATM    2  CAB AAA A1401      -7.274 -12.891 -50.457  1.00 67.24     0.084 C 
HETATM    3  CAC AAA A1401      -7.919 -11.707 -49.749  1.00 67.04     0.024 C 
ENDROOT
BRANCH   2   4
HETATM    4  NAL AAA A1401      -8.317 -13.585 -51.184  1.00 64.63    -0.296 NA
BRANCH   4   5
HETATM    5  CAM AAA A1401      -8.171 -13.745 -52.618  1.00 66.87     0.157 C 
BRANCH   5   6
HETATM    6  CAN AAA A1401      -9.524 -13.984 -53.277  1.00 67.52     0.198 C 
HETATM    7  OAO AAA A1401     -10.274 -14.944 -52.524  1.00 65.32    -0.216 OA
BRANCH   6   8
HETATM    8  CAP AAA A1401      -9.289 -14.444 -54.666  1.00 68.74     0.012 A 
HETATM    9  CAW AAA A1401      -8.577 -13.631 -55.537  1.00 71.66     0.028 A 
HETATM   10  CAU AAA A1401      -8.346 -14.039 -56.845  1.00 75.98     0.156 A 
HETATM   11  CAS AAA A1401      -8.829 -15.259 -57.284  1.00 74.39     0.156 A 
HETATM   12  OAV AAA A1401      -7.644 -13.238 -57.694  1.00 78.60    -0.188 OA
HETATM   13  CAR AAA A1401      -9.545 -16.074 -56.415  1.00 75.68     0.029 A 
HETATM   14  OAT AAA A1401      -8.600 -15.657 -58.568  1.00 64.73    -0.188 OA
HETATM   15  CAQ AAA A1401      -9.780 -15.667 -55.105  1.00 71.58     0.001 A 
ENDBRANCH   6   8
ENDBRANCH   5   6
ENDBRANCH   4   5
ENDBRANCH   2   4
BRANCH   2  16
HETATM   16  CAD AAA A1401      -6.645 -13.861 -49.453  1.00 67.67     0.048 C 
BRANCH  16  17
HETATM   17  CAE AAA A1401      -5.466 -14.634 -50.014  1.00 65.89    -0.020 A 
HETATM   18  CAK AAA A1401      -4.185 -14.367 -49.541  1.00 66.37    -0.002 A 
HETATM   19  CAJ AAA A1401      -3.094 -15.070 -50.037  1.00 72.28     0.027 A 
HETATM   20  CAH AAA A1401      -3.278 -16.056 -50.998  1.00 74.86     0.131 A 
HETATM   21  CAG AAA A1401      -4.558 -16.336 -51.465  1.00 69.94     0.027 A 
HETATM   22  OAI AAA A1401      -2.208 -16.747 -51.482  1.00 77.74    -0.190 OA
HETATM   23  CAF AAA A1401      -5.647 -15.630 -50.969  1.00 65.48    -0.002 A 
ENDBRANCH  16  17
ENDBRANCH   2  16
TORSDOF 6
ENDMDL
MODEL 3
REMARK VINA RESULT:      -8.1      1.898      3.411
REMARK  6 active torsions:
REMARK  status: ('A' for Active; 'I' for Inactive)
REMARK    1  A    between atoms: CAB_2  and  NAL_19 
REMARK    2  A    between atoms: CAB_2  and  CAD_4 
REMARK    3  A    between atoms: CAD_4  and  CAE_5 
REMARK    4  A    between atoms: CAM_11  and  CAN_12 
REMARK    5  A    between atoms: CAM_11  and  NAL_19 
REMARK    6  A    between atoms: CAN_12  and  CAP_13 
ROOT
HETATM    1  CAA AAA A1401      -6.148 -12.124 -51.049  1.00 64.07     0.024 C 
HETATM    2  CAB AAA A1401      -7.218 -12.823 -50.216  1.00 67.24     0.084 C 
HETATM    3  CAC AAA A1401      -7.998 -11.804 -49.394  1.00 67.04     0.024 C 
ENDROOT
BRANCH   2   4
HETATM    4  NAL AAA A1401      -8.147 -13.441 -51.139  1.00 64.63    -0.296 NA
BRANCH   4   5
HETATM    5  CAM AAA A1401      -8.065 -13.088 -52.543  1.00 66.87     0.157 C 
BRANCH   5   6
HETATM    6  CAN AAA A1401      -9.105 -13.850 -53.355  1.00 67.52     0.198 C 
HETATM    7  OAO AAA A1401      -9.927 -14.637 -52.486  1.00 65.32    -0.216 OA
BRANCH   6   8
HETATM    8  CAP AAA A1401      -8.394 -14.693 -54.344  1.00 68.74     0.012 A 
HETATM    9  CAW AAA A1401      -9.132 -15.429 -55.262  1.00 71.66     0.028 A 
HETATM   10  CAU AAA A1401      -8.488 -16.229 -56.198  1.00 75.98     0.156 A 
HETATM   11  CAS AAA A1401      -7.106 -16.296 -56.216  1.00 74.39     0.156 A 
HETATM   12  OAV AAA A1401      -9.218 -16.946 -57.096  1.00 78.60    -0.188 OA
HETATM   13  CAR AAA A1401      -6.364 -15.563 -55.297  1.00 75.68     0.029 A 
HETATM   14  OAT AAA A1401      -6.477 -17.082 -57.136  1.00 64.73    -0.188 OA
HETATM   15  CAQ AAA A1401      -7.006 -14.763 -54.356  1.00 71.58     0.001 A 
ENDBRANCH   6   8
ENDBRANCH   5   6
ENDBRANCH   4   5
ENDBRANCH   2   4
BRANCH   2  16
HETATM   16  CAD AAA A1401      -6.615 -13.910 -49.322  1.00 67.67     0.048 C 
BRANCH  16  17
HETATM   17  CAE AAA A1401      -5.470 -14.663 -49.972  1.00 65.89    -0.020 A 
HETATM   18  CAK AAA A1401      -4.172 -14.471 -49.506  1.00 66.37    -0.002 A 
HETATM   19  CAJ AAA A1401      -3.111 -15.157 -50.083  1.00 72.28     0.027 A 
HETATM   20  CAH AAA A1401      -3.342 -16.052 -51.121  1.00 74.86     0.131 A 
HETATM   21  CAG AAA A1401      -4.638 -16.256 -51.583  1.00 69.94     0.027 A 
HETATM   22  OAI AAA A1401      -2.301 -16.726 -51.685  1.00 77.74    -0.190 OA
HETATM   23  CAF AAA A1401      -5.697 -15.568 -51.005  1.00 65.48    -0.002 A 
ENDBRANCH  16  17
ENDBRANCH   2  16
TORSDOF 6
ENDMDL
MODEL 4
REMARK VINA RESULT:      -7.9      1.104      1.762
REMARK  6 active torsions:
REMARK  status: ('A' for Active; 'I' for Inactive)
REMARK    1  A    between atoms: CAB_2  and  NAL_19 
REMARK    2  A    between atoms: CAB_2  and  CAD_4 
REMARK    3  A    between atoms: CAD_4  and  CAE_5 
REMARK    4  A    between atoms: CAM_11  and  CAN_12 
REMARK    5  A    between atoms: CAM_11  and  NAL_19 
REMARK    6  A    between atoms: CAN_12  and  CAP_13 
ROOT
HETATM    1  CAA AAA A1401      -5.004 -14.313 -47.638  1.00 64.07     0.024 C 
HETATM    2  CAB AAA A1401      -5.698 -14.291 -48.996  1.00 67.24     0.084 C 
HETATM    3  CAC AAA A1401      -6.323 -15.648 -49.294  1.00 67.04     0.024 C 
ENDROOT
BRANCH   2   4
HETATM    4  NAL AAA A1401      -6.775 -13.324 -48.914  1.00 64.63    -0.296 NA
BRANCH   4   5
HETATM    5  CAM AAA A1401      -7.836 -13.386 -49.900  1.00 66.87     0.157 C 
BRANCH   5   6
HETATM    6  CAN AAA A1401      -7.481 -12.561 -51.131  1.00 67.52     0.198 C 
HETATM    7  OAO AAA A1401      -8.029 -11.243 -51.014  1.00 65.32    -0.216 OA
BRANCH   6   8
HETATM    8  CAP AAA A1401      -8.002 -13.264 -52.327  1.00 68.74     0.012 A 
HETATM    9  CAW AAA A1401      -9.197 -13.965 -52.234  1.00 71.66     0.028 A 
HETATM   10  CAU AAA A1401      -9.705 -14.634 -53.341  1.00 75.98     0.156 A 
HETATM   11  CAS AAA A1401      -9.018 -14.605 -54.541  1.00 74.39     0.156 A 
HETATM   12  OAV AAA A1401     -10.879 -15.317 -53.242  1.00 78.60    -0.188 OA
HETATM   13  CAR AAA A1401      -7.820 -13.906 -54.637  1.00 75.68     0.029 A 
HETATM   14  OAT AAA A1401      -9.519 -15.262 -55.625  1.00 64.73    -0.188 OA
HETATM   15  CAQ AAA A1401      -7.307 -13.237 -53.530  1.00 71.58     0.001 A 
ENDBRANCH   6   8
ENDBRANCH   5   6
ENDBRANCH   4   5
ENDBRANCH   2   4
BRANCH   2  16
HETATM   16  CAD AAA A1401      -4.739 -13.865 -50.112  1.00 67.67     0.048 C 
BRANCH  16  17
HETATM   17  CAE AAA A1401      -4.278 -15.015 -50.986  1.00 65.89    -0.020 A 
HETATM   18  CAK AAA A1401      -5.049 -15.395 -52.081  1.00 66.37    -0.002 A 
HETATM   19  CAJ AAA A1401      -4.638 -16.441 -52.898  1.00 72.28     0.027 A 
HETATM   20  CAH AAA A1401      -3.446 -17.105 -52.635  1.00 74.86     0.131 A 
HETATM   21  CAG AAA A1401      -2.666 -16.722 -51.549  1.00 69.94     0.027 A 
HETATM   22  OAI AAA A1401      -3.043 -18.129 -53.438  1.00 77.74    -0.190 OA
HETATM   23  CAF AAA A1401      -3.079 -15.676 -50.732  1.00 65.48    -0.002 A 
ENDBRANCH  16  17
ENDBRANCH   2  16
TORSDOF 6
ENDMDL
MODEL 5
REMARK VINA RESULT:      -7.8      2.234      3.047
REMARK  6 active torsions:
REMARK  status: ('A' for Active; 'I' for Inactive)
REMARK    1  A    between atoms: CAB_2  and  NAL_19 
REMARK    2  A    between atoms: CAB_2  and  CAD_4 
REMARK    3  A    between atoms: CAD_4  and  CAE_5 
REMARK    4  A    between atoms: CAM_11  and  CAN_12 
REMARK    5  A    between atoms: CAM_11  and  NAL_19 
REMARK    6  A    between atoms: CAN_12  and  CAP_13 
ROOT
HETATM    1  CAA AAA A1401      -5.947 -14.980 -47.606  1.00 64.07     0.024 C 
HETATM    2  CAB AAA A1401      -5.774 -14.362 -48.990  1.00 67.24     0.084 C 
HETATM    3  CAC AAA A1401      -6.080 -15.391 -50.071  1.00 67.04     0.024 C 
ENDROOT
BRANCH   2   4
HETATM    4  NAL AAA A1401      -6.750 -13.299 -49.112  1.00 64.63    -0.296 NA
BRANCH   4   5
HETATM    5  CAM AAA A1401      -7.803 -13.436 -50.100  1.00 66.87     0.157 C 
BRANCH   5   6
HETATM    6  CAN AAA A1401      -7.474 -12.639 -51.356  1.00 67.52     0.198 C 
HETATM    7  OAO AAA A1401      -8.016 -11.317 -51.256  1.00 65.32    -0.216 OA
BRANCH   6   8
HETATM    8  CAP AAA A1401      -8.023 -13.367 -52.524  1.00 68.74     0.012 A 
HETATM    9  CAW AAA A1401      -9.238 -14.027 -52.401  1.00 71.66     0.028 A 
HETATM   10  CAU AAA A1401      -9.772 -14.719 -53.482  1.00 75.98     0.156 A 
HETATM   11  CAS AAA A1401      -9.091 -14.752 -54.685  1.00 74.39     0.156 A 
HETATM   12  OAV AAA A1401     -10.966 -15.361 -53.355  1.00 78.60    -0.188 OA
HETATM   13  CAR AAA A1401      -7.872 -14.095 -54.811  1.00 75.68     0.029 A 
HETATM   14  OAT AAA A1401      -9.618 -15.431 -55.744  1.00 64.73    -0.188 OA
HETATM   15  CAQ AAA A1401      -7.333 -13.404 -53.730  1.00 71.58     0.001 A 
ENDBRANCH   6   8
ENDBRANCH   5   6
ENDBRANCH   4   5
ENDBRANCH   2   4
BRANCH   2  16
HETATM   16  CAD AAA A1401      -4.375 -13.768 -49.170  1.00 67.67     0.048 C 
BRANCH  16  17
HETATM   17  CAE AAA A1401      -3.281 -14.813 -49.272  1.00 65.89    -0.020 A 
HETATM   18  CAK AAA A1401      -3.130 -15.534 -50.454  1.00 66.37    -0.002 A 
HETATM   19  CAJ AAA A1401      -2.128 -16.490 -50.568  1.00 72.28     0.027 A 
HETATM   20  CAH AAA A1401      -1.260 -16.722 -49.508  1.00 74.86     0.131 A 
HETATM   21  CAG AAA A1401      -1.399 -15.996 -48.329  1.00 69.94     0.027 A 
HETATM   22  OAI AAA A1401      -0.277 -17.658 -49.622  1.00 77.74    -0.190 OA
HETATM   23  CAF AAA A1401      -2.402 -15.041 -48.216  1.00 65.48    -0.002 A 
ENDBRANCH  16  17
ENDBRANCH   2  16
TORSDOF 6
ENDMDL
MODEL 6
REMARK VINA RESULT:      -7.7      1.612      5.506
REMARK  6 active torsions:
REMARK  status: ('A' for Active; 'I' for Inactive)
REMARK    1  A    between atoms: CAB_2  and  NAL_19 
REMARK    2  A    between atoms: CAB_2  and  CAD_4 
REMARK    3  A    between atoms: CAD_4  and  CAE_5 
REMARK    4  A    between atoms: CAM_11  and  CAN_12 
REMARK    5  A    between atoms: CAM_11  and  NAL_19 
REMARK    6  A    between atoms: CAN_12  and  CAP_13 
ROOT
HETATM    1  CAA AAA A1401      -6.431 -14.708 -48.682  1.00 64.07     0.024 C 
HETATM    2  CAB AAA A1401      -5.410 -14.244 -49.715  1.00 67.24     0.084 C 
HETATM    3  CAC AAA A1401      -4.085 -13.916 -49.040  1.00 67.04     0.024 C 
ENDROOT
BRANCH   2   4
HETATM    4  NAL AAA A1401      -5.176 -15.353 -50.618  1.00 64.63    -0.296 NA
BRANCH   4   5
HETATM    5  CAM AAA A1401      -3.928 -15.392 -51.355  1.00 66.87     0.157 C 
BRANCH   5   6
HETATM    6  CAN AAA A1401      -3.599 -16.816 -51.787  1.00 67.52     0.198 C 
HETATM    7  OAO AAA A1401      -2.261 -17.150 -51.398  1.00 65.32    -0.216 OA
BRANCH   6   8
HETATM    8  CAP AAA A1401      -3.779 -16.910 -53.254  1.00 68.74     0.012 A 
HETATM    9  CAW AAA A1401      -2.709 -17.308 -54.045  1.00 71.66     0.028 A 
HETATM   10  CAU AAA A1401      -2.853 -17.400 -55.424  1.00 75.98     0.156 A 
HETATM   11  CAS AAA A1401      -4.067 -17.094 -56.014  1.00 74.39     0.156 A 
HETATM   12  OAV AAA A1401      -1.800 -17.793 -56.192  1.00 78.60    -0.188 OA
HETATM   13  CAR AAA A1401      -5.139 -16.692 -55.226  1.00 75.68     0.029 A 
HETATM   14  OAT AAA A1401      -4.205 -17.186 -57.367  1.00 64.73    -0.188 OA
HETATM   15  CAQ AAA A1401      -4.997 -16.596 -53.845  1.00 71.58     0.001 A 
ENDBRANCH   6   8
ENDBRANCH   5   6
ENDBRANCH   4   5
ENDBRANCH   2   4
BRANCH   2  16
HETATM   16  CAD AAA A1401      -5.929 -13.052 -50.524  1.00 67.67     0.048 C 
BRANCH  16  17
HETATM   17  CAE AAA A1401      -6.922 -13.439 -51.604  1.00 65.89    -0.020 A 
HETATM   18  CAK AAA A1401      -8.244 -13.702 -51.256  1.00 66.37    -0.002 A 
HETATM   19  CAJ AAA A1401      -9.169 -14.050 -52.232  1.00 72.28     0.027 A 
HETATM   20  CAH AAA A1401      -8.784 -14.123 -53.565  1.00 74.86     0.131 A 
HETATM   21  CAG AAA A1401      -7.467 -13.849 -53.919  1.00 69.94     0.027 A 
HETATM   22  OAI AAA A1401      -9.692 -14.462 -54.521  1.00 77.74    -0.190 OA
HETATM   23  CAF AAA A1401      -6.543 -13.502 -52.942  1.00 65.48    -0.002 A 
ENDBRANCH  16  17
ENDBRANCH   2  16
TORSDOF 6
ENDMDL
MODEL 7
REMARK VINA RESULT:      -7.7      2.605      4.150
REMARK  6 active torsions:
REMARK  status: ('A' for Active; 'I' for Inactive)
REMARK    1  A    between atoms: CAB_2  and  NAL_19 
REMARK    2  A    between atoms: CAB_2  and  CAD_4 
REMARK    3  A    between atoms: CAD_4  and  CAE_5 
REMARK    4  A    between atoms: CAM_11  and  CAN_12 
REMARK    5  A    between atoms: CAM_11  and  NAL_19 
REMARK    6  A    between atoms: CAN_12  and  CAP_13 
ROOT
HETATM    1  CAA AAA A1401      -6.051 -12.331 -51.242  1.00 64.07     0.024 C 
HETATM    2  CAB AAA A1401      -7.163 -13.213 -50.684  1.00 67.24     0.084 C 
HETATM    3  CAC AAA A1401      -7.717 -12.616 -49.396  1.00 67.04     0.024 C 
ENDROOT
BRANCH   2   4
HETATM    4  NAL AAA A1401      -8.236 -13.222 -51.657  1.00 64.63    -0.296 NA
BRANCH   4   5
HETATM    5  CAM AAA A1401      -8.343 -14.352 -52.559  1.00 66.87     0.157 C 
BRANCH   5   6
HETATM    6  CAN AAA A1401      -9.607 -14.255 -53.403  1.00 67.52     0.198 C 
HETATM    7  OAO AAA A1401     -10.595 -15.171 -52.917  1.00 65.32    -0.216 OA
BRANCH   6   8
HETATM    8  CAP AAA A1401      -9.247 -14.538 -54.812  1.00 68.74     0.012 A 
HETATM    9  CAW AAA A1401      -9.670 -15.726 -55.394  1.00 71.66     0.028 A 
HETATM   10  CAU AAA A1401      -9.342 -16.016 -56.713  1.00 75.98     0.156 A 
HETATM   11  CAS AAA A1401      -8.590 -15.119 -57.451  1.00 74.39     0.156 A 
HETATM   12  OAV AAA A1401      -9.763 -17.182 -57.277  1.00 78.60    -0.188 OA
HETATM   13  CAR AAA A1401      -8.162 -13.931 -56.871  1.00 75.68     0.029 A 
HETATM   14  OAT AAA A1401      -8.271 -15.407 -58.745  1.00 64.73    -0.188 OA
HETATM   15  CAQ AAA A1401      -8.486 -13.639 -55.549  1.00 71.58     0.001 A 
ENDBRANCH   6   8
ENDBRANCH   5   6
ENDBRANCH   4   5
ENDBRANCH   2   4
BRANCH   2  16
HETATM   16  CAD AAA A1401      -6.685 -14.651 -50.466  1.00 67.67     0.048 C 
BRANCH  16  17
HETATM   17  CAE AAA A1401      -5.291 -14.744 -49.877  1.00 65.89    -0.020 A 
HETATM   18  CAK AAA A1401      -4.244 -15.213 -50.665  1.00 66.37    -0.002 A 
HETATM   19  CAJ AAA A1401      -2.958 -15.298 -50.145  1.00 72.28     0.027 A 
HETATM   20  CAH AAA A1401      -2.708 -14.900 -48.837  1.00 74.86     0.131 A 
HETATM   21  CAG AAA A1401      -3.748 -14.420 -48.049  1.00 69.94     0.027 A 
HETATM   22  OAI AAA A1401      -1.446 -14.981 -48.328  1.00 77.74    -0.190 OA
HETATM   23  CAF AAA A1401      -5.033 -14.337 -48.571  1.00 65.48    -0.002 A 
ENDBRANCH  16  17
ENDBRANCH   2  16
TORSDOF 6
ENDMDL
MODEL 8
REMARK VINA RESULT:      -7.6      2.688      4.213
REMARK  6 active torsions:
REMARK  status: ('A' for Active; 'I' for Inactive)
REMARK    1  A    between atoms: CAB_2  and  NAL_19 
REMARK    2  A    between atoms: CAB_2  and  CAD_4 
REMARK    3  A    between atoms: CAD_4  and  CAE_5 
REMARK    4  A    between atoms: CAM_11  and  CAN_12 
REMARK    5  A    between atoms: CAM_11  and  NAL_19 
REMARK    6  A    between atoms: CAN_12  and  CAP_13 
ROOT
HETATM    1  CAA AAA A1401      -5.429 -14.858 -47.682  1.00 64.07     0.024 C 
HETATM    2  CAB AAA A1401      -5.454 -14.386 -49.132  1.00 67.24     0.084 C 
HETATM    3  CAC AAA A1401      -5.881 -15.522 -50.052  1.00 67.04     0.024 C 
ENDROOT
BRANCH   2   4
HETATM    4  NAL AAA A1401      -6.458 -13.346 -49.230  1.00 64.63    -0.296 NA
BRANCH   4   5
HETATM    5  CAM AAA A1401      -7.567 -13.540 -50.143  1.00 66.87     0.157 C 
BRANCH   5   6
HETATM    6  CAN AAA A1401      -7.415 -12.657 -51.376  1.00 67.52     0.198 C 
HETATM    7  OAO AAA A1401      -8.065 -11.399 -51.162  1.00 65.32    -0.216 OA
BRANCH   6   8
HETATM    8  CAP AAA A1401      -7.989 -13.377 -52.536  1.00 68.74     0.012 A 
HETATM    9  CAW AAA A1401      -9.208 -14.027 -52.395  1.00 71.66     0.028 A 
HETATM   10  CAU AAA A1401      -9.765 -14.711 -53.468  1.00 75.98     0.156 A 
HETATM   11  CAS AAA A1401      -9.104 -14.749 -54.683  1.00 74.39     0.156 A 
HETATM   12  OAV AAA A1401     -10.963 -15.344 -53.323  1.00 78.60    -0.188 OA
HETATM   13  CAR AAA A1401      -7.882 -14.103 -54.827  1.00 75.68     0.029 A 
HETATM   14  OAT AAA A1401      -9.654 -15.421 -55.734  1.00 64.73    -0.188 OA
HETATM   15  CAQ AAA A1401      -7.319 -13.419 -53.753  1.00 71.58     0.001 A 
ENDBRANCH   6   8
ENDBRANCH   5   6
ENDBRANCH   4   5
ENDBRANCH   2   4
BRANCH   2  16
HETATM   16  CAD AAA A1401      -4.103 -13.806 -49.558  1.00 67.67     0.048 C 
BRANCH  16  17
HETATM   17  CAE AAA A1401      -2.999 -14.030 -48.542  1.00 65.89    -0.020 A 
HETATM   18  CAK AAA A1401      -2.078 -15.054 -48.746  1.00 66.37    -0.002 A 
HETATM   19  CAJ AAA A1401      -1.056 -15.270 -47.830  1.00 72.28     0.027 A 
HETATM   20  CAH AAA A1401      -0.938 -14.454 -46.712  1.00 74.86     0.131 A 
HETATM   21  CAG AAA A1401      -1.848 -13.422 -46.510  1.00 69.94     0.027 A 
HETATM   22  OAI AAA A1401       0.067 -14.665 -45.816  1.00 77.74    -0.190 OA
HETATM   23  CAF AAA A1401      -2.870 -13.208 -47.426  1.00 65.48    -0.002 A 
ENDBRANCH  16  17
ENDBRANCH   2  16
TORSDOF 6
ENDMDL
MODEL 9
REMARK VINA RESULT:      -7.6      2.825      6.465
REMARK  6 active torsions:
REMARK  status: ('A' for Active; 'I' for Inactive)
REMARK    1  A    between atoms: CAB_2  and  NAL_19 
REMARK    2  A    between atoms: CAB_2  and  CAD_4 
REMARK    3  A    between atoms: CAD_4  and  CAE_5 
REMARK    4  A    between atoms: CAM_11  and  CAN_12 
REMARK    5  A    between atoms: CAM_11  and  NAL_19 
REMARK    6  A    between atoms: CAN_12  and  CAP_13 
ROOT
HETATM    1  CAA AAA A1401      -5.825 -15.128 -48.860  1.00 64.07     0.024 C 
HETATM    2  CAB AAA A1401      -5.201 -14.653 -50.168  1.00 67.24     0.084 C 
HETATM    3  CAC AAA A1401      -4.161 -13.573 -49.897  1.00 67.04     0.024 C 
ENDROOT
BRANCH   2   4
HETATM    4  NAL AAA A1401      -4.512 -15.785 -50.754  1.00 64.63    -0.296 NA
BRANCH   4   5
HETATM    5  CAM AAA A1401      -4.625 -15.999 -52.183  1.00 66.87     0.157 C 
BRANCH   5   6
HETATM    6  CAN AAA A1401      -3.606 -17.027 -52.660  1.00 67.52     0.198 C 
HETATM    7  OAO AAA A1401      -2.285 -16.617 -52.287  1.00 65.32    -0.216 OA
BRANCH   6   8
HETATM    8  CAP AAA A1401      -3.740 -17.166 -54.129  1.00 68.74     0.012 A 
HETATM    9  CAW AAA A1401      -2.680 -17.686 -54.860  1.00 71.66     0.028 A 
HETATM   10  CAU AAA A1401      -2.781 -17.823 -56.238  1.00 75.98     0.156 A 
HETATM   11  CAS AAA A1401      -3.940 -17.440 -56.888  1.00 74.39     0.156 A 
HETATM   12  OAV AAA A1401      -1.738 -18.336 -56.948  1.00 78.60    -0.188 OA
HETATM   13  CAR AAA A1401      -5.003 -16.917 -56.160  1.00 75.68     0.029 A 
HETATM   14  OAT AAA A1401      -4.036 -17.578 -58.242  1.00 64.73    -0.188 OA
HETATM   15  CAQ AAA A1401      -4.904 -16.775 -54.780  1.00 71.58     0.001 A 
ENDBRANCH   6   8
ENDBRANCH   5   6
ENDBRANCH   4   5
ENDBRANCH   2   4
BRANCH   2  16
HETATM   16  CAD AAA A1401      -6.265 -14.162 -51.153  1.00 67.67     0.048 C 
BRANCH  16  17
HETATM   17  CAE AAA A1401      -6.882 -12.832 -50.766  1.00 65.89    -0.020 A 
HETATM   18  CAK AAA A1401      -6.718 -11.731 -51.602  1.00 66.37    -0.002 A 
HETATM   19  CAJ AAA A1401      -7.283 -10.507 -51.267  1.00 72.28     0.027 A 
HETATM   20  CAH AAA A1401      -8.030 -10.378 -50.102  1.00 74.86     0.131 A 
HETATM   21  CAG AAA A1401      -8.207 -11.478 -49.270  1.00 69.94     0.027 A 
HETATM   22  OAI AAA A1401      -8.585  -9.177 -49.776  1.00 77.74    -0.190 OA
HETATM   23  CAF AAA A1401      -7.640 -12.701 -49.605  1.00 65.48    -0.002 A 
ENDBRANCH  16  17
ENDBRANCH   2  16
TORSDOF 6
ENDMDL
